*   
* Generic triode model: 10   
* Copyright 2003--2008 by Ayumi Nakabayashi, All rights reserved.   
* Thanks to Tooru Kuroda.   
* Version 3.10, Generated on Sat Mar  8 22:41:25 2008   
*          Plate   
*          | Grid   
*          | | Cathode   
*          | | |
.SUBCKT 10_ayumi A G K
.param GG {(V(G,K)+-0.99999237)}
.param EP {URAMP(V(A,K))}
.param EG {URAMP(V(G,K))}
.param M1 {((0.0096683582*EP)^-0.12233483)}
.param M2 {((0.92459336*URAMP(GG+EP/7.7993226))^1.6223348)}
.param P  {(0.00027480869*URAMP(GG+EP/8.4354085)^1.5)}
.param IK {(U(GG)*P+(1-U(GG))*0.00020223856*M1*M2)}
.param IG {(0.00013740434*EG^1.5*(EG/(EP+EG)*1.2+0.4))}
BIAK A K I=URAMP(IK-IG-URAMP(IK-IG-0.00018769219*EP^1.5))+1e-10*V(A,K)
BIGK G K I=IG   
* CAPS
CGA G A 7p
CGK G K 4p
CAK A K 3p
.ENDS   
*   
* Generic triode model: 12A   
* Copyright 2003--2008 by Ayumi Nakabayashi, All rights reserved.   
* Thanks to Tooru Kuroda.   
* Version 3.10, Generated on Sat Mar  8 22:41:27 2008   
*           Plate   
*           | Grid   
*           | | Cathode   
*           | | |
.SUBCKT 12A_ayumi A G K
.param GG {(V(G,K)+-0.99999998)}
.param EP {URAMP(V(A,K))}
.param EG {URAMP(V(G,K))}
.param M1 {((0.02099402*EP)^-0.30518364)}
.param M2 {((0.83094039*URAMP(GG+EP/8.0527506))^1.8051836)}
.param P  {(0.00060950916*URAMP(GG+EP/9.6911291)^1.5)}
.param IK {(U(GG)*P+(1-U(GG))*0.00037491826*M1*M2)}
.param IG {(0.00030475458*EG^1.5*(EG/(EP+EG)*1.2+0.4))}
BIAK A K I=URAMP(IK-IG-URAMP(IK-IG-0.00040148822*EP^1.5))+1e-10*V(A,K)
BIGK G K I=IG   
* CAPS
CGA G A 8.5p
CGK G K 4p
CAK A K 2p
.ENDS   
*   
* Generic triode model: 12AT7   
* Copyright 2003--2008 by Ayumi Nakabayashi, All rights reserved.   
* Thanks to Tooru Kuroda.   
* Version 3.10, Generated on Sat Mar  8 22:41:07 2008   
*             Plate   
*             | Grid   
*             | | Cathode   
*             | | |
.SUBCKT 12AT7_ayumi A G K
.param GG {(V(G,K)+0.67585931)}
.param EP {URAMP(V(A,K))}
.param EG {URAMP(V(G,K))}
.param M1 {((0.015420581*EP)^-1.768756)}
.param M2 {((0.45889017*URAMP(GG+EP/35.090106))^3.268756)}
.param P  {(0.0031809222*URAMP(GG+EP/76.46733)^1.5)}
.param IK {(U(GG)*P+(1-U(GG))*0.0042575005*M1*M2)}
.param IG {(0.0015904611*EG^1.5*(EG/(EP+EG)*1.2+0.4))}
BIAK A K I=URAMP(IK-IG-URAMP(IK-IG-0.0016530623*EP^1.5))+1e-10*V(A,K)
BIGK G K I=IG   
* CAPS
CGA G A 1.5p
CGK G K 2.2p
CAK A K 0.5p
.ENDS   
*   
* Generic triode model: 12AU7   
* Copyright 2003--2008 by Ayumi Nakabayashi, All rights reserved.   
* Thanks to Tooru Kuroda.   
* Version 3.10, Generated on Sat Mar  8 22:41:08 2008   
*             Plate   
*             | Grid   
*             | | Cathode   
*             | | |
.SUBCKT 12AU7_ayumi A G K
.param GG {(V(G,K)+0.89005722)}
.param EP {URAMP(V(A,K))}
.param EG {URAMP(V(G,K))}
.param M1 {((0.028826571*EP)^-0.90897681)}
.param M2 {((0.622671*URAMP(GG+EP/13.089625))^2.4089768)}
.param P  {(0.00087237591*URAMP(GG+EP/21.021735)^1.5)}
.param IK {(U(GG)*P+(1-U(GG))*0.00055330711*M1*M2)}
.param IG {(0.00043618795*EG^1.5*(EG/(EP+EG)*1.2+0.4))}
BIAK A K I=URAMP(IK-IG-URAMP(IK-IG-0.00049917061*EP^1.5))+1e-10*V(A,K)
BIGK G K I=IG   
* CAPS
CGA G A 1.5p
CGK G K 1.6p
CAK A K 0.4p
.ENDS   
*   
* Generic triode model: 12AX7   
* Copyright 2003--2008 by Ayumi Nakabayashi, All rights reserved.   
* Thanks to Tooru Kuroda.   
* Version 3.10, Generated on Sat Mar  8 22:41:09 2008   
*             Plate   
*             | Grid   
*             | | Cathode   
*             | | |
.SUBCKT 12AX7_ayumi A G K
.param GG {(V(G,K)+0.59836683)}
.param EP {URAMP(V(A,K))}
.param EG {URAMP(V(G,K))}
.param M1 {((0.0017172334*EP)^-0.2685074)}
.param M2 {((0.84817287*URAMP(GG+EP/88.413802))^1.7685074)}
.param P  {(0.001130216*URAMP(GG+EP/104.24031)^1.5)}
.param IK {(U(GG)*P+(1-U(GG))*0.00071211506*M1*M2)}
.param IG {(0.000565108*EG^1.5*(EG/(EP+EG)*1.2+0.4))}
BIAK A K I=URAMP(IK-IG-URAMP(IK-IG-0.00058141055*EP^1.5))+1e-10*V(A,K)
BIGK G K I=IG   
* CAPS
CGA G A 1.7p
CGK G K 1.6p
CAK A K 0.5p
.ENDS   
*   
* Generic triode model: 12AY7   
* Copyright 2003--2008 by Ayumi Nakabayashi, All rights reserved.   
* Thanks to Tooru Kuroda.   
* Version 3.10, Generated on Sat Mar  8 22:41:10 2008   
*             Plate   
*             | Grid   
*             | | Cathode   
*             | | |
.SUBCKT 12AY7_ayumi A G K
.param GG {(V(G,K)+0.71171435)}
.param EP {URAMP(V(A,K))}
.param EG {URAMP(V(G,K))}
.param M1 {((0.0094119714*EP)^-0.68363668)}
.param M2 {((0.68692746*URAMP(GG+EP/33.263227))^2.1836367)}
.param P  {(0.00092634255*URAMP(GG+EP/48.423202)^1.5)}
.param IK {(U(GG)*P+(1-U(GG))*0.00054133951*M1*M2)}
.param IG {(0.00046317128*EG^1.5*(EG/(EP+EG)*1.2+0.4))}
BIAK A K I=URAMP(IK-IG-URAMP(IK-IG-0.00049201413*EP^1.5))+1e-10*V(A,K)
BIGK G K I=IG   
* CAPS
CGA G A 1.3p
CGK G K 1.3p
CAK A K 0.6p
.ENDS   
*   
* Generic triode model: 12B4A   
* Copyright 2003--2008 by Ayumi Nakabayashi, All rights reserved.   
* Thanks to Tooru Kuroda.   
* Version 3.10, Generated on Sat Mar  8 22:41:12 2008   
*             Plate   
*             | Grid   
*             | | Cathode   
*             | | |
.SUBCKT 12B4A_ayumi A G K
.param GG {(V(G,K)+1)}
.param EP {URAMP(V(A,K))}
.param EG {URAMP(V(G,K))}
.param M1 {((0.087065329*EP)^-1.2036947)}
.param M2 {((0.55479636*URAMP(GG+EP/5.1134435))^2.7036947)}
.param P  {(0.0047680512*URAMP(GG+EP/9.2167935)^1.5)}
.param IK {(U(GG)*P+(1-U(GG))*0.0036584566*M1*M2)}
.param IG {(0.0023840256*EG^1.5*(EG/(EP+EG)*1.2+0.4))}
BIAK A K I=URAMP(IK-IG-URAMP(IK-IG-0.0031806909*EP^1.5))+1e-10*V(A,K)
BIGK G K I=IG   
* CAPS
CGA G A 4.8p
CGK G K 5p
CAK A K 1.5p
.ENDS   
*   
* Generic triode model: 12BH7   
* Copyright 2003--2008 by Ayumi Nakabayashi, All rights reserved.   
* Thanks to Tooru Kuroda.   
* Version 3.10, Generated on Sat Mar  8 22:41:14 2008   
*             Plate   
*             | Grid   
*             | | Cathode   
*             | | |
.SUBCKT 12BH7_ayumi A G K
.param GG {(V(G,K)+0.99999999)}
.param EP {URAMP(V(A,K))}
.param EG {URAMP(V(G,K))}
.param M1 {((0.044635144*EP)^-1.6555735)}
.param M2 {((0.47534942*URAMP(GG+EP/11.754204))^3.1555735)}
.param P  {(0.0021126435*URAMP(GG+EP/24.727503)^1.5)}
.param IK {(U(GG)*P+(1-U(GG))*0.0024875937*M1*M2)}
.param IG {(0.00112*EG^1.5*(EG/(EP+EG)*1.2+0.4))}
BIAK A K I=URAMP(IK-IG-URAMP(IK-IG-0.00112*EP^1.5))+1e-10*V(A,K)
BIGK G K I=IG   
* CAPS
CGA G A 2.6p
CGK G K 3.2p
CAK A K 0.5p
.ENDS   
*   
*   
* Generic triode model: 12BY7AT   
* Copyright 2003--2008 by Ayumi Nakabayashi, All rights reserved.   
* Thanks to Tooru Kuroda.   
* Version 3.10, Generated on Sat Mar  8 22:41:15 2008   
*               Plate   
*               | Grid   
*               | | Cathode   
*               | | |
.SUBCKT 12BY7AT_ayumi A G K
.param GG {(V(G,K)+-0.02185341)}
.param EP {URAMP(V(A,K))}
.param EG {URAMP(V(G,K))}
.param M1 {((0.014593712*EP)^-0.7027291)}
.param M2 {((0.68097344*URAMP(GG+EP/21.860549))^2.2027291)}
.param P  {(0.0061475247*URAMP(GG+EP/32.101912)^1.5)}
.param IK {(U(GG)*P+(1-U(GG))*0.0036081888*M1*M2)}
.param IG {(0.0030737623*EG^1.5*(EG/(EP+EG)*1.2+0.4))}
BIAK A K I=URAMP(IK-IG-URAMP(IK-IG-0.0033632383*EP^1.5))+1e-10*V(A,K)
BIGK G K I=IG   
* CAPS
CGA G A 4.1p
CGK G K 6.1p
CAK A K 3.4p
.ENDS   
*   
*   
* Generic triode model: 12GN7AT   
* Copyright 2003--2008 by Ayumi Nakabayashi, All rights reserved.   
* Thanks to Tooru Kuroda.   
* Version 3.10, Generated on Sat Mar  8 22:41:16 2008   
*               Plate   
*               | Grid   
*               | | Cathode   
*               | | |
.SUBCKT 12GN7AT_ayumi A G K
.param GG {(V(G,K)+-0.52499611)}
.param EP {URAMP(V(A,K))}
.param EG {URAMP(V(G,K))}
.param M1 {((0.0070794303*EP)^-0.51284817)}
.param M2 {((0.74521269*URAMP(GG+EP/35.989804))^2.0128482)}
.param P  {(0.032317671*URAMP(GG+EP/48.294674)^1.5)}
.param IK {(U(GG)*P+(1-U(GG))*0.018638041*M1*M2)}
.param IG {(0.016158835*EG^1.5*(EG/(EP+EG)*1.2+0.4))}
BIAK A K I=URAMP(IK-IG-URAMP(IK-IG-0.017167779*EP^1.5))+1e-10*V(A,K)
BIGK G K I=IG   
* CAPS
CGA G A 7.1p
CGK G K 10.4p
CAK A K 3.9p
.ENDS   
*   
* Generic triode model: 14AF7   
* Copyright 2003--2008 by Ayumi Nakabayashi, All rights reserved.   
* Thanks to Tooru Kuroda.   
* Version 3.10, Generated on Sat Mar  8 22:46:24 2008   
*             Plate   
*             | Grid   
*             | | Cathode   
*             | | |
.SUBCKT 14AF7_ayumi A G K
.param GG {(V(G,K)+0.77793251)}
.param EP {URAMP(V(A,K))}
.param EG {URAMP(V(G,K))}
.param M1 {((0.0061210583*EP)^-0.15593519)}
.param M2 {((0.90583256*URAMP(GG+EP/15.384177))^1.6559352)}
.param P  {(0.0006681181*URAMP(GG+EP/16.983467)^1.5)}
.param IK {(U(GG)*P+(1-U(GG))*0.00046940316*M1*M2)}
.param IG {(0.00033405905*EG^1.5*(EG/(EP+EG)*1.2+0.4))}
BIAK A K I=URAMP(IK-IG-URAMP(IK-IG-0.00039392832*EP^1.5))+1e-10*V(A,K)
BIGK G K I=IG   
* CAPS
CGA G A 2.3p
CGK G K 2.2p
CAK A K 1.6p
.ENDS   
*   
*   
* Generic triode model: 1619T   
* Copyright 2003--2008 by Ayumi Nakabayashi, All rights reserved.   
* Thanks to Tooru Kuroda.   
* Version 3.10, Generated on Sat Mar  8 22:42:00 2008   
*             Plate   
*             | Grid   
*             | | Cathode   
*             | | |
.SUBCKT 1619T_ayumi A G K
.param GG {(V(G,K)+-0.99999999)}
.param EP {URAMP(V(A,K))}
.param EG {URAMP(V(G,K))}
.param M1 {((0.021726327*EP)^-0.34437983)}
.param M2 {((0.8132815*URAMP(GG+EP/8.5941123))^1.8443798)}
.param P  {(0.00095297512*URAMP(GG+EP/10.567205)^1.5)}
.param IK {(U(GG)*P+(1-U(GG))*0.00057412229*M1*M2)}
.param IG {(0.00047648756*EG^1.5*(EG/(EP+EG)*1.2+0.4))}
BIAK A K I=URAMP(IK-IG-URAMP(IK-IG-0.0006149126*EP^1.5))+1e-10*V(A,K)
BIGK G K I=IG   
* CAPS
CGA G A 4.4p
CGK G K 6.1p
CAK A K 12.2p
.ENDS   
*   
*   
* Generic triode model: 20P1T   
* Copyright 2003--2008 by Ayumi Nakabayashi, All rights reserved.   
* Thanks to Tooru Kuroda.   
* Version 3.10, Generated on Sat Mar  8 22:41:18 2008   
*             Plate   
*             | Grid   
*             | | Cathode   
*             | | |
.SUBCKT 20P1T_ayumi A G K
.param GG {(V(G,K)+0.99999997)}
.param EP {URAMP(V(A,K))}
.param EG {URAMP(V(G,K))}
.param M1 {((0.15450603*EP)^-1.2979847)}
.param M2 {((0.53610015*URAMP(GG+EP/3.0024709))^2.7979847)}
.param P  {(0.002051274*URAMP(GG+EP/5.6005784)^1.5)}
.param IK {(U(GG)*P+(1-U(GG))*0.0017001298*M1*M2)}
.param IG {(0.001025637*EG^1.5*(EG/(EP+EG)*1.2+0.4))}
BIAK A K I=URAMP(IK-IG-URAMP(IK-IG-0.0015988677*EP^1.5))+1e-10*V(A,K)
BIGK G K I=IG   
* CAPS
CGA G A 9.5p
CGK G K 13.5p
CAK A K 10.5p
.ENDS   
*   
* Generic triode model: 211   
* Copyright 2003--2008 by Ayumi Nakabayashi, All rights reserved.   
* Thanks to Tooru Kuroda.   
* Version 3.10, Generated on Sat Mar  8 22:41:51 2008   
*           Plate   
*           | Grid   
*           | | Cathode   
*           | | |
.SUBCKT 211_ayumi A G K
.param GG {(V(G,K)+1)}
.param EP {URAMP(V(A,K))}
.param EG {URAMP(V(G,K))}
.param M1 {((0.0021297199*EP)^-0.038461562)}
.param M2 {((0.97499998*URAMP(GG+EP/11.73864))^1.5384616)}
.param P  {(0.00045306372*URAMP(GG+EP/12.039631)^1.5)}
.param IK {(U(GG)*P+(1-U(GG))*0.00039351788*M1*M2)}
.param IG {(0.00011014965*EG^1.5*(EG/(EP+EG)*1.2+0.4))}
BIAK A K I=URAMP(IK-IG-URAMP(IK-IG-0.00041468102*EP^1.5))+1e-10*V(A,K)
BIGK G K I=IG   
* CAPS
CGA G A 14p
CGK G K 5.4p
CAK A K 4.8p
.ENDS   
*   
*   

*   
*   
* Generic triode model: 25E5T   
* Copyright 2003--2008 by Ayumi Nakabayashi, All rights reserved.   
* Thanks to Tooru Kuroda.   
* Version 3.10, Generated on Sat Mar  8 22:41:19 2008   
*             Plate   
*             | Grid   
*             | | Cathode   
*             | | |
.SUBCKT 25E5T_ayumi A G K
.param GG {(V(G,K)+1)}
.param EP {URAMP(V(A,K))}
.param EG {URAMP(V(G,K))}
.param M1 {((0.081561717*EP)^-0.79980677)}
.param M2 {((0.65222871*URAMP(GG+EP/4.2639035))^2.2998068)}
.param P  {(0.0042185857*URAMP(GG+EP/6.5374361)^1.5)}
.param IK {(U(GG)*P+(1-U(GG))*0.0025511424*M1*M2)}
.param IG {(0.0021092928*EG^1.5*(EG/(EP+EG)*1.2+0.4))}
BIAK A K I=URAMP(IK-IG-URAMP(IK-IG-0.00311336*EP^1.5))+1e-10*V(A,K)
BIGK G K I=IG   
* CAPS
CGA G A 7.7p
CGK G K 9.9p
CAK A K 7p
.ENDS   
*   
* Generic triode model: 27   
* Copyright 2003--2008 by Ayumi Nakabayashi, All rights reserved.   
* Thanks to Tooru Kuroda.   
* Version 3.10, Generated on Sat Mar  8 22:41:29 2008   
*          Plate   
*          | Grid   
*          | | Cathode   
*          | | |
.SUBCKT 27_ayumi A G K
.param GG {(V(G,K)+0.99999994)}
.param EP {URAMP(V(A,K))}
.param EG {URAMP(V(G,K))}
.param M1 {((0.041269212*EP)^-0.69845105)}
.param M2 {((0.68229856*URAMP(GG+EP/7.6982676))^2.1984511)}
.param P  {(0.00036339312*URAMP(GG+EP/11.282843)^1.5)}
.param IK {(U(GG)*P+(1-U(GG))*0.00021306994*M1*M2)}
.param IG {(0.00018169656*EG^1.5*(EG/(EP+EG)*1.2+0.4))}
BIAK A K I=URAMP(IK-IG-URAMP(IK-IG-0.00023106309*EP^1.5))+1e-10*V(A,K)
BIGK G K I=IG   
* CAPS
CGA G A 3.3p
CGK G K 3.1p
CAK A K 2.3p
.ENDS   
*   
* Generic triode model: 2A3   
* Copyright 2003--2008 by Ayumi Nakabayashi, All rights reserved.   
* Thanks to Tooru Kuroda.   
* Version 3.10, Generated on Sat Mar  8 22:38:56 2008   
*           Plate   
*           | Grid   
*           | | Cathode   
*           | | |
.SUBCKT 2A3_ayumi A G K
.param GG {(V(G,K)+-0.47258991)}
.param EP {URAMP(V(A,K))}
.param EG {URAMP(V(G,K))}
.param M1 {((0.056835059*EP)^-0.4044593)}
.param M2 {((0.78762513*URAMP(GG+EP/3.7366878))^1.9044593)}
.param P  {(0.0012053852*URAMP(GG+EP/4.7442465)^1.5)}
.param IK {(U(GG)*P+(1-U(GG))*0.000709416*M1*M2)}
.param IG {(0.00060269261*EG^1.5*(EG/(EP+EG)*1.2+0.4))}
BIAK A K I=URAMP(IK-IG-URAMP(IK-IG-0.0010032299*EP^1.5))+1e-10*V(A,K)
BIGK G K I=IG   
* CAPS
CGA G A 16.5p
CGK G K 7.5p
CAK A K 5.5p
.ENDS   
*   
*   
* Generic triode model: 300B   
* Copyright 2003--2008 by Ayumi Nakabayashi, All rights reserved.   
* Thanks to Tooru Kuroda.   
* Version 3.10, Generated on Sat Mar  8 22:41:52 2008   
*            Plate   
*            | Grid   
*            | | Cathode   
*            | | |
.SUBCKT 300B_ayumi A G K
.param GG {(V(G,K)+0.99996017)}
.param EP {URAMP(V(A,K))}
.param EG {URAMP(V(G,K))}
.param M1 {((0.038949013*EP)^-0.25159159)}
.param M2 {((0.85636401*URAMP(GG+EP/3.6877954))^1.7515916)}
.param P  {(0.0011156138*URAMP(GG+EP/4.3063409)^1.5)}
.param IK {(U(GG)*P+(1-U(GG))*0.00071191966*M1*M2)}
.param IG {(0.00055780691*EG^1.5*(EG/(EP+EG)*1.2+0.4))}
BIAK A K I=URAMP(IK-IG-URAMP(IK-IG-0.00096815606*EP^1.5))+1e-10*V(A,K)
BIGK G K I=IG   
* CAPS
CGA G A 15p
CGK G K 8.5p
CAK A K 4.1p
.ENDS   
*   
*   
* Generic triode model: 31LZ6T   
* Copyright 2003--2008 by Ayumi Nakabayashi, All rights reserved.   
* Thanks to Tooru Kuroda.   
* Version 3.10, Generated on Sat Mar  8 22:41:20 2008   
*              Plate   
*              | Grid   
*              | | Cathode   
*              | | |
.SUBCKT 31LZ6T_ayumi A G K
.param GG {(V(G,K)+-0.11976616)}
.param EP {URAMP(V(A,K))}
.param EG {URAMP(V(G,K))}
.param M1 {((0.21025804*EP)^-1.445676)}
.param M2 {((0.50922098*URAMP(GG+EP/2.3341748))^2.945676)}
.param P  {(0.0061264796*URAMP(GG+EP/4.5838151)^1.5)}
.param IK {(U(GG)*P+(1-U(GG))*0.0058083241*M1*M2)}
.param IG {(0.0030632398*EG^1.5*(EG/(EP+EG)*1.2+0.4))}
BIAK A K I=URAMP(IK-IG-URAMP(IK-IG-0.0051737191*EP^1.5))+1e-10*V(A,K)
BIGK G K I=IG   
* CAPS
CGA G A 9.2p
CGK G K 12.9p
CAK A K 10.4p
.ENDS   
*   
*   
* Generic triode model: 350BT   
* Copyright 2003--2008 by Ayumi Nakabayashi, All rights reserved.   
* Thanks to Tooru Kuroda.   
* Version 3.10, Generated on Sat Mar  8 22:41:53 2008   
*             Plate   
*             | Grid   
*             | | Cathode   
*             | | |
.SUBCKT 350BT_ayumi A G K
.param GG {(V(G,K)+0.99999998)}
.param EP {URAMP(V(A,K))}
.param EG {URAMP(V(G,K))}
.param M1 {((0.060793226*EP)^-0.90421858)}
.param M2 {((0.62390334*URAMP(GG+EP/6.1864896))^2.4042186)}
.param P  {(0.0019265247*URAMP(GG+EP/9.9157821)^1.5)}
.param IK {(U(GG)*P+(1-U(GG))*0.0012190211*M1*M2)}
.param IG {(0.00096326237*EG^1.5*(EG/(EP+EG)*1.2+0.4))}
BIAK A K I=URAMP(IK-IG-URAMP(IK-IG-0.0012619241*EP^1.5))+1e-10*V(A,K)
BIGK G K I=IG   
* CAPS
CGA G A 6.7p
CGK G K 9.3p
CAK A K 7.5p
.ENDS   
*   
* Generic triode model: 354V   
* Copyright 2003--2008 by Ayumi Nakabayashi, All rights reserved.   
* Thanks to Tooru Kuroda.   
* Version 3.10, Generated on Sat Mar  8 22:41:54 2008   
*            Plate   
*            | Grid   
*            | | Cathode   
*            | | |
.SUBCKT 354V_ayumi A G K
.param GG {(V(G,K)+0.65601816)}
.param EP {URAMP(V(A,K))}
.param EG {URAMP(V(G,K))}
.param M1 {((0.006476558*EP)^-0.39630014)}
.param M2 {((0.79101402*URAMP(GG+EP/32.268063))^1.8963001)}
.param P  {(0.0016633526*URAMP(GG+EP/40.793288)^1.5)}
.param IK {(U(GG)*P+(1-U(GG))*0.00098151348*M1*M2)}
.param IG {(0.00083167629*EG^1.5*(EG/(EP+EG)*1.2+0.4))}
BIAK A K I=URAMP(IK-IG-URAMP(IK-IG-0.00089321233*EP^1.5))+1e-10*V(A,K)
BIGK G K I=IG   
* CAPS
CGA G A 2p
CGK G K 2p
CAK A K 2p
.ENDS   
*   
*   
* Generic triode model: 35C5T   
* Copyright 2003--2008 by Ayumi Nakabayashi, All rights reserved.   
* Thanks to Tooru Kuroda.   
* Version 3.10, Generated on Sat Mar  8 22:41:22 2008   
*             Plate   
*             | Grid   
*             | | Cathode   
*             | | |
.SUBCKT 35C5T_ayumi A G K
.param GG {(V(G,K)+0.99999998)}
.param EP {URAMP(V(A,K))}
.param EG {URAMP(V(G,K))}
.param M1 {((0.12544688*EP)^-1.6161868)}
.param M2 {((0.48135753*URAMP(GG+EP/4.1343593))^3.1161868)}
.param P  {(0.0021455369*URAMP(GG+EP/8.5889574)^1.5)}
.param IK {(U(GG)*P+(1-U(GG))*0.0024204769*M1*M2)}
.param IG {(0.0010727685*EG^1.5*(EG/(EP+EG)*1.2+0.4))}
BIAK A K I=URAMP(IK-IG-URAMP(IK-IG-0.0014581748*EP^1.5))+1e-10*V(A,K)
BIGK G K I=IG   
* CAPS
CGA G A 5.2p
CGK G K 6.9p
CAK A K 8.4p
.ENDS   
*   
* Generic triode model: 3A167M   
* Copyright 2003--2008 by Ayumi Nakabayashi, All rights reserved.   
* Thanks to Tooru Kuroda.   
* Version 3.10, Generated on Sat Mar  8 22:38:57 2008   
*              Plate   
*              | Grid   
*              | | Cathode   
*              | | |
.SUBCKT 3A167M_ayumi A G K
.param GG {(V(G,K)+0.41219892)}
.param EP {URAMP(V(A,K))}
.param EG {URAMP(V(G,K))}
.param M1 {((0.0067454169*EP)^-0.5944305)}
.param M2 {((0.71618514*URAMP(GG+EP/42.075214))^2.0944305)}
.param P  {(0.034181438*URAMP(GG+EP/58.749074)^1.5)}
.param IK {(U(GG)*P+(1-U(GG))*0.01971674*M1*M2)}
.param IG {(0.017090719*EG^1.5*(EG/(EP+EG)*1.2+0.4))}
BIAK A K I=URAMP(IK-IG-URAMP(IK-IG-0.017967154*EP^1.5))+1e-10*V(A,K)
BIGK G K I=IG   
* CAPS
CGA G A 4p
CGK G K 11p
CAK A K 2.5p
.ENDS   
*   
* Generic triode model: 3C33   
* Copyright 2003--2008 by Ayumi Nakabayashi, All rights reserved.   
* Thanks to Tooru Kuroda.   
* Version 3.10, Generated on Sat Mar  8 22:38:58 2008   
*            Plate   
*            | Grid   
*            | | Cathode   
*            | | |
.SUBCKT 3C33_ayumi A G K
.param GG {(V(G,K)+1)}
.param EP {URAMP(V(A,K))}
.param EG {URAMP(V(G,K))}
.param M1 {((0.045418916*EP)^-0.95262383)}
.param M2 {((0.61158991*URAMP(GG+EP/8.5517252))^2.4526238)}
.param P  {(0.0048487914*URAMP(GG+EP/13.982777)^1.5)}
.param IK {(U(GG)*P+(1-U(GG))*0.0031463341*M1*M2)}
.param IG {(0.0024243957*EG^1.5*(EG/(EP+EG)*1.2+0.4))}
BIAK A K I=URAMP(IK-IG-URAMP(IK-IG-0.0029537409*EP^1.5))+1e-10*V(A,K)
BIGK G K I=IG   
* CAPS
CGA G A 5p
CGK G K 8.5p
CAK A K 4p
.ENDS   
*   
* Generic triode model: 41MXP   
* Copyright 2003--2008 by Ayumi Nakabayashi, All rights reserved.   
* Thanks to Tooru Kuroda.   
* Version 3.10, Generated on Sat Mar  8 22:41:30 2008   
*             Plate   
*             | Grid   
*             | | Cathode   
*             | | |
.SUBCKT 41MXP_ayumi A G K
.param GG {(V(G,K)+0.99999047)}
.param EP {URAMP(V(A,K))}
.param EG {URAMP(V(G,K))}
.param M1 {((0.24250237*EP)^-4.0569457)}
.param M2 {((0.26993246*URAMP(GG+EP/3.0105584))^5.5569457)}
.param P  {(0.0015885113*URAMP(GG+EP/11.153006)^1.5)}
.param IK {(U(GG)*P+(1-U(GG))*0.089955716*M1*M2)}
.param IG {(0.00079425566*EG^1.5*(EG/(EP+EG)*1.2+0.4))}
BIAK A K I=URAMP(IK-IG-URAMP(IK-IG-0.0010126188*EP^1.5))+1e-10*V(A,K)
BIGK G K I=IG   
* CAPS
CGA G A 4p
CGK G K 4p
CAK A K 4p
.ENDS   
*   
* Generic triode model: 45   
* Copyright 2003--2008 by Ayumi Nakabayashi, All rights reserved.   
* Thanks to Tooru Kuroda.   
* Version 3.10, Generated on Sat Mar  8 22:41:31 2008   
*          Plate   
*          | Grid   
*          | | Cathode   
*          | | |
.SUBCKT 45_ayumi A G K
.param GG {(V(G,K)+-0.36938318)}
.param EP {URAMP(V(A,K))}
.param EG {URAMP(V(G,K))}
.param M1 {((0.072484305*EP)^-0.45086063)}
.param M2 {((0.76889142*URAMP(GG+EP/3.1883948))^1.9508606)}
.param P  {(0.00046886056*URAMP(GG+EP/4.1467426)^1.5)}
.param IK {(U(GG)*P+(1-U(GG))*0.00027269199*M1*M2)}
.param IG {(0.00023443028*EG^1.5*(EG/(EP+EG)*1.2+0.4))}
BIAK A K I=URAMP(IK-IG-URAMP(IK-IG-0.00041387828*EP^1.5))+1e-10*V(A,K)
BIGK G K I=IG   
* CAPS
CGA G A 7p
CGK G K 4p
CAK A K 3p
.ENDS   
*   
* Generic triode model: 46   
* Copyright 2003--2008 by Ayumi Nakabayashi, All rights reserved.   
* Thanks to Tooru Kuroda.   
* Version 3.10, Generated on Sat Mar  8 22:41:32 2008   
*          Plate   
*          | Grid   
*          | | Cathode   
*          | | |
.SUBCKT 46_ayumi A G K
.param GG {(V(G,K)+-0.6332578)}
.param EP {URAMP(V(A,K))}
.param EG {URAMP(V(G,K))}
.param M1 {((0.012087887*EP)^-1.4892322)}
.param M2 {((0.50180111*URAMP(GG+EP/41.214721))^2.9892322)}
.param P  {(0.00056616214*URAMP(GG+EP/82.13358)^1.5)}
.param IK {(U(GG)*P+(1-U(GG))*0.0005601202*M1*M2)}
.param IG {(0.00016122035*EG^1.5*(EG/(EP+EG)*1.2+0.4))}
BIAK A K I=URAMP(IK-IG-URAMP(IK-IG-0.00033941125*EP^1.5))+1e-10*V(A,K)
BIGK G K I=IG   
* CAPS
CGA G A 4p
CGK G K 4p
CAK A K 4p
.ENDS   
*   
* Generic triode model: 50   
* Copyright 2003--2008 by Ayumi Nakabayashi, All rights reserved.   
* Thanks to Tooru Kuroda.   
* Version 3.10, Generated on Sat Mar  8 22:41:33 2008   
*          Plate   
*          | Grid   
*          | | Cathode   
*          | | |
.SUBCKT 50_ayumi A G K
.param GG {(V(G,K)+1)}
.param EP {URAMP(V(A,K))}
.param EG {URAMP(V(G,K))}
.param M1 {((0.053592842*EP)^-0.32643301)}
.param M2 {((0.82127294*URAMP(GG+EP/3.3349055))^1.826433)}
.param P  {(0.00024452775*URAMP(GG+EP/4.0606543)^1.5)}
.param IK {(U(GG)*P+(1-U(GG))*0.0001486389*M1*M2)}
.param IG {(0.00012226387*EG^1.5*(EG/(EP+EG)*1.2+0.4))}
BIAK A K I=URAMP(IK-IG-URAMP(IK-IG-0.00021794382*EP^1.5))+1e-10*V(A,K)
BIGK G K I=IG   
* CAPS
CGA G A 4p
CGK G K 4p
CAK A K 4p
.ENDS   
*   
*   
* Generic triode model: 50HB26T   
* Copyright 2003--2008 by Ayumi Nakabayashi, All rights reserved.   
* Thanks to Tooru Kuroda.   
* Version 3.10, Generated on Sat Mar  8 22:41:23 2008   
*               Plate   
*               | Grid   
*               | | Cathode   
*               | | |
.SUBCKT 50HB26T_ayumi A G K
.param GG {(V(G,K)+0.99999978)}
.param EP {URAMP(V(A,K))}
.param EG {URAMP(V(G,K))}
.param M1 {((0.092479665*EP)^-0.92218999)}
.param M2 {((0.6192743*URAMP(GG+EP/4.1168586))^2.42219)}
.param P  {(0.0043389918*URAMP(GG+EP/6.6478758)^1.5)}
.param IK {(U(GG)*P+(1-U(GG))*0.0027704924*M1*M2)}
.param IG {(0.0021694959*EG^1.5*(EG/(EP+EG)*1.2+0.4))}
BIAK A K I=URAMP(IK-IG-URAMP(IK-IG-0.0031844715*EP^1.5))+1e-10*V(A,K)
BIGK G K I=IG   
* CAPS
CGA G A 7.6p
CGK G K 9.8p
CAK A K 6.7p
.ENDS   
*   
* Generic triode model: 53   
* Copyright 2003--2008 by Ayumi Nakabayashi, All rights reserved.   
* Thanks to Tooru Kuroda.   
* Version 3.10, Generated on Sat Mar  8 22:41:36 2008   
*          Plate   
*          | Grid   
*          | | Cathode   
*          | | |
.SUBCKT 53_ayumi A G K
.param GG {(V(G,K)+1)}
.param EP {URAMP(V(A,K))}
.param EG {URAMP(V(G,K))}
.param M1 {((0.00077005461*EP)^-0.038461586)}
.param M2 {((0.97499997*URAMP(GG+EP/32.465269))^1.5384616)}
.param P  {(0.00055508206*URAMP(GG+EP/33.297713)^1.5)}
.param IK {(U(GG)*P+(1-U(GG))*0.00048212799*M1*M2)}
.param IG {(0.00016903085*EG^1.5*(EG/(EP+EG)*1.2+0.4))}
BIAK A K I=URAMP(IK-IG-URAMP(IK-IG-0.00042499185*EP^1.5))+1e-10*V(A,K)
BIGK G K I=IG   
* CAPS
CGA G A 4p
CGK G K 4p
CAK A K 4p
.ENDS   
*   
* Generic triode model: 5687   
* Copyright 2003--2008 by Ayumi Nakabayashi, All rights reserved.   
* Thanks to Tooru Kuroda.   
* Version 3.10, Generated on Sat Mar  8 22:42:01 2008   
*            Plate   
*            | Grid   
*            | | Cathode   
*            | | |
.SUBCKT 5687_ayumi A G K
.param GG {(V(G,K)+0.35624804)}
.param EP {URAMP(V(A,K))}
.param EG {URAMP(V(G,K))}
.param M1 {((0.022532918*EP)^-0.73087992)}
.param M2 {((0.67238043*URAMP(GG+EP/14.539598))^2.2308799)}
.param P  {(0.0048744976*URAMP(GG+EP/21.624065)^1.5)}
.param IK {(U(GG)*P+(1-U(GG))*0.0028821468*M1*M2)}
.param IG {(0.0024372488*EG^1.5*(EG/(EP+EG)*1.2+0.4))}
BIAK A K I=URAMP(IK-IG-URAMP(IK-IG-0.0027792585*EP^1.5))+1e-10*V(A,K)
BIGK G K I=IG   
* CAPS
CGA G A 4p
CGK G K 4p
CAK A K 0.6p
.ENDS   
*   
* Generic triode model: 5751   
* Copyright 2003--2008 by Ayumi Nakabayashi, All rights reserved.   
* Thanks to Tooru Kuroda.   
* Version 3.10, Generated on Sat Mar  8 22:42:03 2008   
*            Plate   
*            | Grid   
*            | | Cathode   
*            | | |
.SUBCKT 5751_ayumi A G K
.param GG {(V(G,K)+0.5559861)}
.param EP {URAMP(V(A,K))}
.param EG {URAMP(V(G,K))}
.param M1 {((0.0052861104*EP)^-0.6766372)}
.param M2 {((0.68913644*URAMP(GG+EP/58.807619))^2.1766372)}
.param P  {(0.0013669039*URAMP(GG+EP/85.335234)^1.5)}
.param IK {(U(GG)*P+(1-U(GG))*0.00079762831*M1*M2)}
.param IG {(0.00068345195*EG^1.5*(EG/(EP+EG)*1.2+0.4))}
BIAK A K I=URAMP(IK-IG-URAMP(IK-IG-0.00070754928*EP^1.5))+1e-10*V(A,K)
BIGK G K I=IG   
* CAPS
CGA G A 1.4p
CGK G K 1.4p
CAK A K 0.5p
.ENDS   
*   
* Generic triode model: 5842   
* Copyright 2003--2008 by Ayumi Nakabayashi, All rights reserved.   
* Thanks to Tooru Kuroda.   
* Version 3.10, Generated on Sat Mar  8 22:42:05 2008   
*            Plate   
*            | Grid   
*            | | Cathode   
*            | | |
.SUBCKT 5842_ayumi A G K
.param GG {(V(G,K)+-0.46951652)}
.param EP {URAMP(V(A,K))}
.param EG {URAMP(V(G,K))}
.param M1 {((0.0042897418*EP)^-0.30633316)}
.param M2 {((0.8304116*URAMP(GG+EP/39.533476))^1.8063332)}
.param P  {(0.017297881*URAMP(GG+EP/47.607086)^1.5)}
.param IK {(U(GG)*P+(1-U(GG))*0.010632968*M1*M2)}
.param IG {(0.0086489406*EG^1.5*(EG/(EP+EG)*1.2+0.4))}
BIAK A K I=URAMP(IK-IG-URAMP(IK-IG-0.0091968129*EP^1.5))+1e-10*V(A,K)
BIGK G K I=IG   
* CAPS
CGA G A 1.8p
CGK G K 9p
CAK A K 0.5p
.ENDS   
*   
* Generic triode model: 5965   
* Copyright 2003--2008 by Ayumi Nakabayashi, All rights reserved.   
* Thanks to Tooru Kuroda.   
* Version 3.10, Generated on Sat Mar  8 22:42:06 2008   
*            Plate   
*            | Grid   
*            | | Cathode   
*            | | |
.SUBCKT 5965_ayumi A G K
.param GG {(V(G,K)+0.61035688)}
.param EP {URAMP(V(A,K))}
.param EG {URAMP(V(G,K))}
.param M1 {((0.024336203*EP)^-2.1648233)}
.param M2 {((0.40929668*URAMP(GG+EP/24.272617))^3.6648233)}
.param P  {(0.0045273524*URAMP(GG+EP/59.303235)^1.5)}
.param IK {(U(GG)*P+(1-U(GG))*0.010017704*M1*M2)}
.param IG {(0.0022636762*EG^1.5*(EG/(EP+EG)*1.2+0.4))}
BIAK A K I=URAMP(IK-IG-URAMP(IK-IG-0.0023786712*EP^1.5))+1e-10*V(A,K)
BIGK G K I=IG   
* CAPS
CGA G A 3p
CGK G K 4p
CAK A K 0.5p
.ENDS   
*   
* Generic triode model: 5998   
* Copyright 2003--2008 by Ayumi Nakabayashi, All rights reserved.   
* Thanks to Tooru Kuroda.   
* Version 3.10, Generated on Sat Mar  8 22:42:08 2008   
*            Plate   
*            | Grid   
*            | | Cathode   
*            | | |
.SUBCKT 5998_ayumi A G K
.param GG {(V(G,K)+1)}
.param EP {URAMP(V(A,K))}
.param EG {URAMP(V(G,K))}
.param M1 {((0.1360498*EP)^-1.7828871)}
.param M2 {((0.4569149*URAMP(GG+EP/3.9918111))^3.2828871)}
.param P  {(0.0069534109*URAMP(GG+EP/8.7364434)^1.5)}
.param IK {(U(GG)*P+(1-U(GG))*0.0094617726*M1*M2)}
.param IG {(0.0034767055*EG^1.5*(EG/(EP+EG)*1.2+0.4))}
BIAK A K I=URAMP(IK-IG-URAMP(IK-IG-0.0047041065*EP^1.5))+1e-10*V(A,K)
BIGK G K I=IG   
* CAPS
CGA G A 8.6p
CGK G K 6p
CAK A K 2.2p
.ENDS   
*   
* Generic triode model: 59Th   
* Copyright 2003--2008 by Ayumi Nakabayashi, All rights reserved.   
* Thanks to Tooru Kuroda.   
* Version 3.10, Generated on Sat Mar  8 22:41:43 2008   
*            Plate   
*            | Grid   
*            | | Cathode   
*            | | |
.SUBCKT 59Th_ayumi A G K
.param GG {(V(G,K)+0.99979071)}
.param EP {URAMP(V(A,K))}
.param EG {URAMP(V(G,K))}
.param M1 {((0.073387615*EP)^-5.8658889)}
.param M2 {((0.20364141*URAMP(GG+EP/10.851403))^7.3658889)}
.param P  {(0.00056363412*URAMP(GG+EP/53.286819)^1.5)}
.param IK {(U(GG)*P+(1-U(GG))*1.6789061*M1*M2)}
.param IG {(0.00021213204*EG^1.5*(EG/(EP+EG)*1.2+0.4))}
BIAK A K I=URAMP(IK-IG-URAMP(IK-IG-0.00038183766*EP^1.5))+1e-10*V(A,K)
BIGK G K I=IG   
* CAPS
CGA G A 4p
CGK G K 4p
CAK A K 4p
.ENDS   
*   
*   
* Generic triode model: 6072   
* Copyright 2003--2008 by Ayumi Nakabayashi, All rights reserved.   
* Thanks to Tooru Kuroda.   
* Version 3.10, Generated on Sat Mar  8 22:42:09 2008   
*            Plate   
*            | Grid   
*            | | Cathode   
*            | | |
.SUBCKT 6072_ayumi A G K
.param GG {(V(G,K)+0.75743218)}
.param EP {URAMP(V(A,K))}
.param EG {URAMP(V(G,K))}
.param M1 {((0.0057774859*EP)^-0.42611934)}
.param M2 {((0.77876794*URAMP(GG+EP/38.292098))^1.9261193)}
.param P  {(0.00098547839*URAMP(GG+EP/49.1701)^1.5)}
.param IK {(U(GG)*P+(1-U(GG))*0.00057643098*M1*M2)}
.param IG {(0.0004927392*EG^1.5*(EG/(EP+EG)*1.2+0.4))}
BIAK A K I=URAMP(IK-IG-URAMP(IK-IG-0.00052295488*EP^1.5))+1e-10*V(A,K)
BIGK G K I=IG   
* CAPS
CGA G A 1.4p
CGK G K 1.4p
CAK A K 0.5p
.ENDS   
*   
* Generic triode model: 6080   
* Copyright 2003--2008 by Ayumi Nakabayashi, All rights reserved.   
* Thanks to Tooru Kuroda.   
* Version 3.10, Generated on Sat Mar  8 22:42:10 2008   
*            Plate   
*            | Grid   
*            | | Cathode   
*            | | |
.SUBCKT 6080_ayumi A G K
.param GG {(V(G,K)+1)}
.param EP {URAMP(V(A,K))}
.param EG {URAMP(V(G,K))}
.param M1 {((0.37781455*EP)^-1.6383781)}