

* Generic pentode model: 1619   
* Copyright 2003--2008 by Ayumi Nakabayashi, All rights reserved.   
* Thanks to Tooru Kuroda.   
* Version 3.10, Generated on Sat Mar  8 22:42:00 2008   
*            Plate   
*            | Screen Grid   
*            | | Control Grid   
*            | | | Cathode   
*            | | | |
.SUBCKT 1619_ayumi A G2 G1 K
.param GG  {(V(G1,K)+-0.99999999)}
.param EP  {URAMP(V(A,K))}
.param EG  {URAMP(V(G1,K))}
.param EG2 {URAMP(V(G2,K))}
.param M1  {((0.021726327*EG2)^-0.34437983)}
.param M2  {((0.8132815*URAMP(GG+EG2/8.5941123))^1.8443798)}
.param P   {(0.00095297512*URAMP(GG+EG2/10.567205)^1.5)}
.param IK  {(U(GG)*P+(1-U(GG))*0.00057412229*M1*M2)}
.param IG  {(0.00047648756*EG^1.5*(EG/(EP+EG)*1.2+0.4))}
.param IK2 {((IK-IG)*(1-0.4*(EXP(-EP/(EG2+1e-10)*15)-EXP(-15))))}
.param IG2T {(IK2*(0.922008525*(1-EP/(EP+10))^1.5+0.077991475))}
.param IK3 {(IK2*(EP+4700)/(EG2+4700))}
.param IK4 {(IK3-URAMP(IK3-(0.0006149126*(EP+URAMP(EG2-EP))^1.5)))}
.param IP  {URAMP(IK4-IG2T-URAMP(IK4-IG2T-(0.0006149126*EP^1.5)))}
BIAK A  K I=IP+1e-10*V(A,K)
BIG2 G2 K I=URAMP(IK4-IP)
BIGK G1 K I=IG   
* CAPS
CGA G1 A  0.35p
CGK G1 K  6.1p
C12 G1 G2 4.1p
CAK A  K  12.2p
.ENDS   

* Generic pentode model: 20P1   
* Copyright 2003--2008 by Ayumi Nakabayashi, All rights reserved.   
* Thanks to Tooru Kuroda.   
* Version 3.10, Generated on Sat Mar  8 22:41:18 2008   
*            Plate   
*            | Screen Grid   
*            | | Control Grid   
*            | | | Cathode   
*            | | | |
.SUBCKT 20P1_ayumi A G2 G1 K
.param GG  {(V(G1,K)+0.99999997)}
.param EP  {URAMP(V(A,K))}
.param EG  {URAMP(V(G1,K))}
.param EG2 {URAMP(V(G2,K))}
.param M1  {((0.15450603*EG2)^-1.2979847)}
.param M2  {((0.53610015*URAMP(GG+EG2/3.0024709))^2.7979847)}
.param P   {(0.002051274*URAMP(GG+EG2/5.6005784)^1.5)}
.param IK  {(U(GG)*P+(1-U(GG))*0.0017001298*M1*M2)}
.param IG  {(0.001025637*EG^1.5*(EG/(EP+EG)*1.2+0.4))}
.param IK2 {((IK-IG)*(1-0.4*(EXP(-EP/(EG2+1e-10)*15)-EXP(-15))))}
.param IG2T {(IK2*(0.956631473*(1-EP/(EP+10))^1.5+0.043368527))}
.param IK3 {(IK2*(EP+1622.5)/(EG2+1622.5))}
.param IK4 {(IK3-URAMP(IK3-(0.0015988677*(EP+URAMP(EG2-EP))^1.5)))}
.param IP  {URAMP(IK4-IG2T-URAMP(IK4-IG2T-(0.0015988677*EP^1.5)))}
BIAK A  K I=IP+1e-10*V(A,K)
BIG2 G2 K I=URAMP(IK4-IP)
BIGK G1 K I=IG   
* CAPS
CGA G1 A  0.5p
CGK G1 K  13.5p
C12 G1 G2 9p
CAK A  K  10.5p
.ENDS   

* Generic pentode model: 24   
* Copyright 2003--2008 by Ayumi Nakabayashi, All rights reserved.   
* Thanks to Tooru Kuroda.   
* Version 3.10, Generated on Sat Mar  8 22:46:31 2008   
*          Plate   
*          | Screen Grid   
*          | | Control Grid   
*          | | | Cathode   
*          | | | |
.SUBCKT 24_ayumi A G2 G1 K
.param GG  {(V(G1,K)+0.67663821)}
.param EP  {URAMP(V(A,K))}
.param EG  {URAMP(V(G1,K))}
.param EG2 {URAMP(V(G2,K))}
.param M1  {((0.056557649*EG2)^-1.0488029)}
.param M2  {((0.58851157*URAMP(GG+EG2/7.2755574))^2.5488029)}
.param P   {(0.00036970393*URAMP(GG+EG2/12.362641)^1.5)}
.param IK  {(U(GG)*P+(1-U(GG))*0.00025402288*M1*M2)}
.param IG  {(0.00018485196*EG^1.5*(EG/(EP+EG)*1.2+0.4))}
.param IK2 {((IK-IG)*(1-0.4*(EXP(-EP/(EG2+1e-10)*15)-EXP(-15))))}
.param IG2T {(IK2*(0.89560668*(1-EP/(EP+10))^1.5+0.10439332))}
.param IK3 {(IK2*(EP+2237.1045)/(EG2+2237.1045))}
.param IK4 {(IK3-URAMP(IK3-(0.0002306046*(EP+URAMP(EG2-EP))^1.5)))}
.param IP  {URAMP(IK4-IG2T-URAMP(IK4-IG2T-(0.0002306046*EP^1.5)))}
BIAK A  K I=IP+1e-10*V(A,K)
BIG2 G2 K I=URAMP(IK4-IP)
BIGK G1 K I=IG   
* CAPS
CGA G1 A  0.007p
CGK G1 K  3.2p
C12 G1 G2 2.1p
CAK A  K  10.5p
.ENDS   

* Generic pentode model: 25E5   
* Copyright 2003--2008 by Ayumi Nakabayashi, All rights reserved.   
* Thanks to Tooru Kuroda.   
* Version 3.10, Generated on Sat Mar  8 22:41:19 2008   
*            Plate   
*            | Screen Grid   
*            | | Control Grid   
*            | | | Cathode   
*            | | | |
.SUBCKT 25E5_ayumi A G2 G1 K
.param GG  {(V(G1,K)+1)}
.param EP  {URAMP(V(A,K))}
.param EG  {URAMP(V(G1,K))}
.param EG2 {URAMP(V(G2,K))}
.param M1  {((0.081561717*EG2)^-0.79980677)}
.param M2  {((0.65222871*URAMP(GG+EG2/4.2639035))^2.2998068)}
.param P   {(0.0042185857*URAMP(GG+EG2/6.5374361)^1.5)}
.param IK  {(U(GG)*P+(1-U(GG))*0.0025511424*M1*M2)}
.param IG  {(0.0021092928*EG^1.5*(EG/(EP+EG)*1.2+0.4))}
.param IK2 {((IK-IG)*(1-0.4*(EXP(-EP/(EG2+1e-10)*15)-EXP(-15))))}
.param IG2T {(IK2*(0.960918328*(1-EP/(EP+10))^1.5+0.039081672))}
.param IK3 {(IK2*(EP+1400)/(EG2+1400))}
.param IK4 {(IK3-URAMP(IK3-(0.00311336*(EP+URAMP(EG2-EP))^1.5)))}
.param IP  {URAMP(IK4-IG2T-URAMP(IK4-IG2T-(0.00311336*EP^1.5)))}
BIAK A  K I=IP+1e-10*V(A,K)
BIG2 G2 K I=URAMP(IK4-IP)
BIGK G1 K I=IG   
* CAPS
CGA G1 A  1.1p
CGK G1 K  9.9p
C12 G1 G2 6.6p
CAK A  K  7p
.ENDS   

* Generic pentode model: 31LZ6   
* Copyright 2003--2008 by Ayumi Nakabayashi, All rights reserved.   
* Thanks to Tooru Kuroda.   
* Version 3.10, Generated on Sat Mar  8 22:41:20 2008   
*             Plate   
*             | Screen Grid   
*             | | Control Grid   
*             | | | Cathode   
*             | | | |
.SUBCKT 31LZ6_ayumi A G2 G1 K
.param GG  {(V(G1,K)+-0.11976616)}
.param EP  {URAMP(V(A,K))}
.param EG  {URAMP(V(G1,K))}
.param EG2 {URAMP(V(G2,K))}
.param M1  {((0.21025804*EG2)^-1.445676)}
.param M2  {((0.50922098*URAMP(GG+EG2/2.3341748))^2.945676)}
.param P   {(0.0061264796*URAMP(GG+EG2/4.5838151)^1.5)}
.param IK  {(U(GG)*P+(1-U(GG))*0.0058083241*M1*M2)}
.param IG  {(0.0030632398*EG^1.5*(EG/(EP+EG)*1.2+0.4))}
.param IK2 {((IK-IG)*(1-0.4*(EXP(-EP/(EG2+1e-10)*15)-EXP(-15))))}
.param IG2T {(IK2*(0.9984634955*(1-EP/(EP+10))^1.5+0.0015365045))}
.param IK3 {(IK2*(EP+1345)/(EG2+1345))}
.param IK4 {(IK3-URAMP(IK3-(0.0051737191*(EP+URAMP(EG2-EP))^1.5)))}
.param IP  {URAMP(IK4-IG2T-URAMP(IK4-IG2T-(0.0051737191*EP^1.5)))}
BIAK A  K I=IP+1e-10*V(A,K)
BIG2 G2 K I=URAMP(IK4-IP)
BIGK G1 K I=IG   
* CAPS
CGA G1 A  0.6p
CGK G1 K  12.9p
C12 G1 G2 8.6p
CAK A  K  10.4p
.ENDS   

* Generic pentode model: 350B   
* Copyright 2003--2008 by Ayumi Nakabayashi, All rights reserved.   
* Thanks to Tooru Kuroda.   
* Version 3.10, Generated on Sat Mar  8 22:41:53 2008   
*            Plate   
*            | Screen Grid   
*            | | Control Grid   
*            | | | Cathode   
*            | | | |
.SUBCKT 350B_ayumi A G2 G1 K
.param GG  {(V(G1,K)+0.99999998)}
.param EP  {URAMP(V(A,K))}
.param EG  {URAMP(V(G1,K))}
.param EG2 {URAMP(V(G2,K))}
.param M1  {((0.060793226*EG2)^-0.90421858)}
.param M2  {((0.62390334*URAMP(GG+EG2/6.1864896))^2.4042186)}
.param P   {(0.0019265247*URAMP(GG+EG2/9.9157821)^1.5)}
.param IK  {(U(GG)*P+(1-U(GG))*0.0012190211*M1*M2)}
.param IG  {(0.00096326237*EG^1.5*(EG/(EP+EG)*1.2+0.4))}
.param IK2 {((IK-IG)*(1-0.4*(EXP(-EP/(EG2+1e-10)*15)-EXP(-15))))}
.param IG2T {(IK2*(0.946533574*(1-EP/(EP+10))^1.5+0.053466426))}
.param IK3 {(IK2*(EP+4981.25)/(EG2+4981.25))}
.param IK4 {(IK3-URAMP(IK3-(0.0012619241*(EP+URAMP(EG2-EP))^1.5)))}
.param IP  {URAMP(IK4-IG2T-URAMP(IK4-IG2T-(0.0012619241*EP^1.5)))}
BIAK A  K I=IP+1e-10*V(A,K)
BIG2 G2 K I=URAMP(IK4-IP)
BIGK G1 K I=IG   
* CAPS
CGA G1 A  0.5p
CGK G1 K  9.3p
C12 G1 G2 6.2p
CAK A  K  7.5p
.ENDS   

* Generic pentode model: 50HB26   
* Copyright 2003--2008 by Ayumi Nakabayashi, All rights reserved.   
* Thanks to Tooru Kuroda.   
* Version 3.10, Generated on Sat Mar  8 22:41:23 2008   
*              Plate   
*              | Screen Grid   
*              | | Control Grid   
*              | | | Cathode   
*              | | | |
.SUBCKT 50HB26_ayumi A G2 G1 K
.param GG  {(V(G1,K)+0.99999978)}
.param EP  {URAMP(V(A,K))}
.param EG  {URAMP(V(G1,K))}
.param EG2 {URAMP(V(G2,K))}
.param M1  {((0.092479665*EG2)^-0.92218999)}
.param M2  {((0.6192743*URAMP(GG+EG2/4.1168586))^2.42219)}
.param P   {(0.0043389918*URAMP(GG+EG2/6.6478758)^1.5)}
.param IK  {(U(GG)*P+(1-U(GG))*0.0027704924*M1*M2)}
.param IG  {(0.0021694959*EG^1.5*(EG/(EP+EG)*1.2+0.4))}
.param IK2 {((IK-IG)*(1-0.4*(EXP(-EP/(EG2+1e-10)*15)-EXP(-15))))}
.param IG2T {(IK2*(0.953564854*(1-EP/(EP+10))^1.5+0.046435146))}
.param IK3 {(IK2*(EP+1715)/(EG2+1715))}
.param IK4 {(IK3-URAMP(IK3-(0.0031844715*(EP+URAMP(EG2-EP))^1.5)))}
.param IP  {URAMP(IK4-IG2T-URAMP(IK4-IG2T-(0.0031844715*EP^1.5)))}
BIAK A  K I=IP+1e-10*V(A,K)
BIG2 G2 K I=URAMP(IK4-IP)
BIGK G1 K I=IG   
* CAPS
CGA G1 A  1.1p
CGK G1 K  9.8p
C12 G1 G2 6.5p
CAK A  K  6.7p
.ENDS   

* Generic pentode model: 6146B   
* Copyright 2003--2008 by Ayumi Nakabayashi, All rights reserved.   
* Thanks to Tooru Kuroda.   
* Version 3.10, Generated on Sat Mar  8 22:42:12 2008   
*             Plate   
*             | Screen Grid   
*             | | Control Grid   
*             | | | Cathode   
*             | | | |
.SUBCKT 6146B_ayumi A G2 G1 K
.param GG  {(V(G1,K)+0.99999998)}
.param EP  {URAMP(V(A,K))}
.param EG  {URAMP(V(G1,K))}
.param EG2 {URAMP(V(G2,K))}
.param M1  {((0.058258554*EG2)^-0.41427032)}
.param M2  {((0.78358839*URAMP(GG+EG2/3.7146753))^1.9142703)}
.param P   {(0.001563206*URAMP(GG+EG2/4.7405951)^1.5)}
.param IK  {(U(GG)*P+(1-U(GG))*0.0009173158*M1*M2)}
.param IG  {(0.000781603*EG^1.5*(EG/(EP+EG)*1.2+0.4))}
.param IK2 {((IK-IG)*(1-0.4*(EXP(-EP/(EG2+1e-10)*15)-EXP(-15))))}
.param IG2T {(IK2*(0.956750418*(1-EP/(EP+10))^1.5+0.043249582))}
.param IK3 {(IK2*(EP+3004)/(EG2+3004))}
.param IK4 {(IK3-URAMP(IK3-(0.0013014595*(EP+URAMP(EG2-EP))^1.5)))}
.param IP  {URAMP(IK4-IG2T-URAMP(IK4-IG2T-(0.0013014595*EP^1.5)))}
BIAK A  K I=IP+1e-10*V(A,K)
BIG2 G2 K I=URAMP(IK4-IP)
BIGK G1 K I=IG   
* CAPS
CGA G1 A  0.22p
CGK G1 K  7.7p
C12 G1 G2 5.1p
CAK A  K  8.3p
.ENDS   

* Generic pentode model: 6197   
* Copyright 2003--2008 by Ayumi Nakabayashi, All rights reserved.   
* Thanks to Tooru Kuroda.   
* Version 3.10, Generated on Sat Mar  8 22:42:13 2008   
*            Plate   
*            | Screen Grid   
*            | | Control Grid   
*            | | | Cathode   
*            | | | |
.SUBCKT 6197_ayumi A G2 G1 K
.param GG  {(V(G1,K)+0.45955375)}
.param EP  {URAMP(V(A,K))}
.param EG  {URAMP(V(G1,K))}
.param EG2 {URAMP(V(G2,K))}
.param M1  {((0.014421851*EG2)^-0.5339196)}
.param M2  {((0.73749228*URAMP(GG+EG2/18.202083))^2.0339196)}
.param P   {(0.0053217435*URAMP(GG+EG2/24.681049)^1.5)}
.param IK  {(U(GG)*P+(1-U(GG))*0.0030656981*M1*M2)}
.param IG  {(0.0026608717*EG^1.5*(EG/(EP+EG)*1.2+0.4))}
.param IK2 {((IK-IG)*(1-0.4*(EXP(-EP/(EG2+1e-10)*15)-EXP(-15))))}
.param IG2T {(IK2*(0.81697318*(1-EP/(EP+10))^1.5+0.18302682))}
.param IK3 {(IK2*(EP+3900)/(EG2+3900))}
.param IK4 {(IK3-URAMP(IK3-(0.002987557*(EP+URAMP(EG2-EP))^1.5)))}
.param IP  {URAMP(IK4-IG2T-URAMP(IK4-IG2T-(0.002987557*EP^1.5)))}
BIAK A  K I=IP+1e-10*V(A,K)
BIG2 G2 K I=URAMP(IK4-IP)
BIGK G1 K I=IG   
* CAPS
CGA G1 A  0.125p
CGK G1 K  6.9p
C12 G1 G2 4.6p
CAK A  K  5p
.ENDS   

* Generic pentode model: 6267   
* Copyright 2003--2008 by Ayumi Nakabayashi, All rights reserved.   
* Thanks to Tooru Kuroda.   
* Version 3.10, Generated on Sat Mar  8 22:42:16 2008   
*            Plate   
*            | Screen Grid   
*            | | Control Grid   
*            | | | Cathode   
*            | | | |
.SUBCKT 6267_ayumi A G2 G1 K
.param GG  {(V(G1,K)+0.59868749)}
.param EP  {URAMP(V(A,K))}
.param EG  {URAMP(V(G1,K))}
.param EG2 {URAMP(V(G2,K))}
.param M1  {((0.010782364*EG2)^-0.70765893)}
.param M2  {((0.67945278*URAMP(GG+EG2/29.728844))^2.2076589)}
.param P   {(0.0013378994*URAMP(GG+EG2/43.754099)^1.5)}
.param IK  {(U(GG)*P+(1-U(GG))*0.00078620809*M1*M2)}
.param IG  {(0.00066894969*EG^1.5*(EG/(EP+EG)*1.2+0.4))}
.param IK2 {((IK-IG)*(1-0.4*(EXP(-EP/(EG2+1e-10)*15)-EXP(-15))))}
.param IG2T {(IK2*(0.83966688*(1-EP/(EP+10))^1.5+0.16033312))}
.param IK3 {(IK2*(EP+7510)/(EG2+7510))}
.param IK4 {(IK3-URAMP(IK3-(0.00071507731*(EP+URAMP(EG2-EP))^1.5)))}
.param IP  {URAMP(IK4-IG2T-URAMP(IK4-IG2T-(0.00071507731*EP^1.5)))}
BIAK A  K I=IP+1e-10*V(A,K)
BIG2 G2 K I=URAMP(IK4-IP)
BIGK G1 K I=IG   
* CAPS
CGA G1 A  0.05p
CGK G1 K  2.3p
C12 G1 G2 1.5p
CAK A  K  5.3p
.ENDS   

* Generic pentode model: 62BT   
* Copyright 2003--2008 by Ayumi Nakabayashi, All rights reserved.   
* Thanks to Tooru Kuroda.   
* Version 3.10, Generated on Sat Mar  8 22:41:25 2008   
*            Plate   
*            | Screen Grid   
*            | | Control Grid   
*            | | | Cathode   
*            | | | |
.SUBCKT 62BT_ayumi A G2 G1 K
.param GG  {(V(G1,K)+0.99999993)}
.param EP  {URAMP(V(A,K))}
.param EG  {URAMP(V(G1,K))}
.param EG2 {URAMP(V(G2,K))}
.param M1  {((0.10647561*EG2)^-1.0560332)}
.param M2  {((0.58684685*URAMP(GG+EG2/3.8802609))^2.5560332)}
.param P   {(0.002839063*URAMP(GG+EG2/6.6120504)^1.5)}
.param IK  {(U(GG)*P+(1-U(GG))*0.0019598422*M1*M2)}
.param IG  {(0.0014195315*EG^1.5*(EG/(EP+EG)*1.2+0.4))}
.param IK2 {((IK-IG)*(1-0.4*(EXP(-EP/(EG2+1e-10)*15)-EXP(-15))))}
.param IG2T {(IK2*(0.964210772*(1-EP/(EP+10))^1.5+0.035789228))}
.param IK3 {(IK2*(EP+2070)/(EG2+2070))}
.param IK4 {(IK3-URAMP(IK3-(0.0020873677*(EP+URAMP(EG2-EP))^1.5)))}
.param IP  {URAMP(IK4-IG2T-URAMP(IK4-IG2T-(0.0020873677*EP^1.5)))}
BIAK A  K I=IP+1e-10*V(A,K)
BIG2 G2 K I=URAMP(IK4-IP)
BIGK G1 K I=IG   
* CAPS
CGA G1 A  0.5p
CGK G1 K  13.5p
C12 G1 G2 9p
CAK A  K  10.5p
.ENDS   

* Generic pentode model: 6550A   
* Copyright 2003--2008 by Ayumi Nakabayashi, All rights reserved.   
* Thanks to Tooru Kuroda.   
* Version 3.10, Generated on Sat Mar  8 22:42:21 2008   
*             Plate   
*             | Screen Grid   
*             | | Control Grid   
*             | | | Cathode   
*             | | | |
.SUBCKT 6550A_ayumi A G2 G1 K
.param GG  {(V(G1,K)+0.1919366)}
.param EP  {URAMP(V(A,K))}
.param EG  {URAMP(V(G1,K))}
.param EG2 {URAMP(V(G2,K))}
.param M1  {((0.064698506*EG2)^-0.90961742)}
.param M2  {((0.62250546*URAMP(GG+EG2/5.8346717))^2.4096174)}
.param P   {(0.0027588474*URAMP(GG+EG2/9.3728844)^1.5)}
.param IK  {(U(GG)*P+(1-U(GG))*0.0017503674*M1*M2)}
.param IG  {(0.0013794237*EG^1.5*(EG/(EP+EG)*1.2+0.4))}
.param IK2 {((IK-IG)*(1-0.4*(EXP(-EP/(EG2+1e-10)*15)-EXP(-15))))}
.param IG2T {(IK2*(0.928052868*(1-EP/(EP+10))^1.5+0.071947132))}
.param IK3 {(IK2*(EP+2900)/(EG2+2900))}
.param IK4 {(IK3-URAMP(IK3-(0.0018325138*(EP+URAMP(EG2-EP))^1.5)))}
.param IP  {URAMP(IK4-IG2T-URAMP(IK4-IG2T-(0.0018325138*EP^1.5)))}
BIAK A  K I=IP+1e-10*V(A,K)
BIG2 G2 K I=URAMP(IK4-IP)
BIGK G1 K I=IG   
* CAPS
CGA G1 A  0.8p
CGK G1 K  8.6p
C12 G1 G2 5.7p
CAK A  K  9.2p
.ENDS   

* Generic pentode model: 6AK6   
* Copyright 2003--2008 by Ayumi Nakabayashi, All rights reserved.   
* Thanks to Tooru Kuroda.   
* Version 3.10, Generated on Sat Mar  8 22:39:03 2008   
*            Plate   
*            | Screen Grid   
*            | | Control Grid   
*            | | | Cathode   
*            | | | |
.SUBCKT 6AK6_ayumi A G2 G1 K
.param GG  {(V(G1,K)+1)}
.param EP  {URAMP(V(A,K))}
.param EG  {URAMP(V(G1,K))}
.param EG2 {URAMP(V(G2,K))}
.param M1  {((0.047037015*EG2)^-0.80231696)}
.param M2  {((0.65151759*URAMP(GG+EG2/7.4086847))^2.302317)}
.param P   {(0.00071109747*URAMP(GG+EG2/11.371427)^1.5)}
.param IK  {(U(GG)*P+(1-U(GG))*0.00043043074*M1*M2)}
.param IG  {(0.00035554873*EG^1.5*(EG/(EP+EG)*1.2+0.4))}
.param IK2 {((IK-IG)*(1-0.4*(EXP(-EP/(EG2+1e-10)*15)-EXP(-15))))}
.param IG2T {(IK2*(0.86761893*(1-EP/(EP+10))^1.5+0.13238107))}
.param IK3 {(IK2*(EP+4320)/(EG2+4320))}
.param IK4 {(IK3-URAMP(IK3-(0.00045138222*(EP+URAMP(EG2-EP))^1.5)))}
.param IP  {URAMP(IK4-IG2T-URAMP(IK4-IG2T-(0.00045138222*EP^1.5)))}
BIAK A  K I=IP+1e-10*V(A,K)
BIG2 G2 K I=URAMP(IK4-IP)
BIGK G1 K I=IG   
* CAPS
CGA G1 A  0.12p
CGK G1 K  2.1p
C12 G1 G2 1.4p
CAK A  K  4.1p
.ENDS   

* Generic pentode model: 6AN8P   
* Copyright 2003--2008 by Ayumi Nakabayashi, All rights reserved.   
* Thanks to Tooru Kuroda.   
* Version 3.10, Generated on Sat Mar  8 22:39:07 2008   
*             Plate   
*             | Screen Grid   
*             | | Control Grid   
*             | | | Cathode   
*             | | | |
.SUBCKT 6AN8P_ayumi A G2 G1 K
.param GG  {(V(G1,K)+-1)}
.param EP  {URAMP(V(A,K))}
.param EG  {URAMP(V(G1,K))}
.param EG2 {URAMP(V(G2,K))}
.param M1  {((0.024591513*EG2)^-1.3002423)}
.param M2  {((0.53566794*URAMP(GG+EG2/18.881801))^2.8002423)}
.param P   {(0.0063199577*URAMP(GG+EG2/35.249078)^1.5)}
.param IK  {(U(GG)*P+(1-U(GG))*0.0052482203*M1*M2)}
.param IG  {(0.0031599788*EG^1.5*(EG/(EP+EG)*1.2+0.4))}
.param IK2 {((IK-IG)*(1-0.4*(EXP(-EP/(EG2+1e-10)*15)-EXP(-15))))}
.param IG2T {(IK2*(0.77512042*(1-EP/(EP+10))^1.5+0.22487958))}
.param IK3 {(IK2*(EP+7075)/(EG2+7075))}
.param IK4 {(IK3-URAMP(IK3-(0.0034308188*(EP+URAMP(EG2-EP))^1.5)))}
.param IP  {URAMP(IK4-IG2T-URAMP(IK4-IG2T-(0.0034308188*EP^1.5)))}
BIAK A  K I=IP+1e-10*V(A,K)
BIG2 G2 K I=URAMP(IK4-IP)
BIGK G1 K I=IG   
* CAPS
CGA G1 A  0.04p
CGK G1 K  4.2p
C12 G1 G2 2.8p
CAK A  K  2.4p
.ENDS   

* Generic pentode model: 6AU6   
* Copyright 2003--2008 by Ayumi Nakabayashi, All rights reserved.   
* Thanks to Tooru Kuroda.   
* Version 3.10, Generated on Sat Mar  8 22:39:10 2008   
*            Plate   
*            | Screen Grid   
*            | | Control Grid   
*            | | | Cathode   
*            | | | |
.SUBCKT 6AU6_ayumi A G2 G1 K
.param GG  {(V(G1,K)+0.24107953)}
.param EP  {URAMP(V(A,K))}
.param EG  {URAMP(V(G1,K))}
.param EG2 {URAMP(V(G2,K))}
.param M1  {((0.014176045*EG2)^-0.93570358)}
.param M2  {((0.61583848*URAMP(GG+EG2/27.099343))^2.4357036)}
.param P   {(0.0032162308*URAMP(GG+EG2/44.003978)^1.5)}
.param IK  {(U(GG)*P+(1-U(GG))*0.0020681021*M1*M2)}
.param IG  {(0.0016081154*EG^1.5*(EG/(EP+EG)*1.2+0.4))}
.param IK2 {((IK-IG)*(1-0.4*(EXP(-EP/(EG2+1e-10)*15)-EXP(-15))))}
.param IG2T {(IK2*(0.71681629*(1-EP/(EP+10))^1.5+0.28318371))}
.param IK3 {(IK2*(EP+15750)/(EG2+15750))}
.param IK4 {(IK3-URAMP(IK3-(0.0017183702*(EP+URAMP(EG2-EP))^1.5)))}
.param IP  {URAMP(IK4-IG2T-URAMP(IK4-IG2T-(0.0017183702*EP^1.5)))}
BIAK A  K I=IP+1e-10*V(A,K)
BIG2 G2 K I=URAMP(IK4-IP)
BIGK G1 K I=IG   
* CAPS
CGA G1 A  0.0035p
CGK G1 K  3.3p
C12 G1 G2 2.2p
CAK A  K  5p
.ENDS   

* Generic pentode model: 6BL8P   
* Copyright 2003--2008 by Ayumi Nakabayashi, All rights reserved.   
* Thanks to Tooru Kuroda.   
* Version 3.10, Generated on Sat Mar  8 22:39:14 2008   
*             Plate   
*             | Screen Grid   
*             | | Control Grid   
*             | | | Cathode   
*             | | | |
.SUBCKT 6BL8P_ayumi A G2 G1 K
.param GG  {(V(G1,K)+0.57453871)}
.param EP  {URAMP(V(A,K))}
.param EG  {URAMP(V(G1,K))}
.param EG2 {URAMP(V(G2,K))}
.param M1  {((0.0091087169*EG2)^-0.67124576)}
.param M2  {((0.69084764*URAMP(GG+EG2/33.940276))^2.1712458)}
.param P   {(0.0040028722*URAMP(GG+EG2/49.128454)^1.5)}
.param IK  {(U(GG)*P+(1-U(GG))*0.0023332764*M1*M2)}
.param IG  {(0.0020014361*EG^1.5*(EG/(EP+EG)*1.2+0.4))}
.param IK2 {((IK-IG)*(1-0.4*(EXP(-EP/(EG2+1e-10)*15)-EXP(-15))))}
.param IG2T {(IK2*(0.79161587*(1-EP/(EP+10))^1.5+0.20838413))}
.param IK3 {(IK2*(EP+5830)/(EG2+5830))}
.param IK4 {(IK3-URAMP(IK3-(0.0021242724*(EP+URAMP(EG2-EP))^1.5)))}
.param IP  {URAMP(IK4-IG2T-URAMP(IK4-IG2T-(0.0021242724*EP^1.5)))}
BIAK A  K I=IP+1e-10*V(A,K)
BIG2 G2 K I=URAMP(IK4-IP)
BIGK G1 K I=IG   
* CAPS
CGA G1 A  0.025p
CGK G1 K  3.1p
C12 G1 G2 2.1p
CAK A  K  3.4p
.ENDS   

* Generic pentode model: 6BM8P   
* Copyright 2003--2008 by Ayumi Nakabayashi, All rights reserved.   
* Thanks to Tooru Kuroda.   
* Version 3.10, Generated on Sat Mar  8 22:39:18 2008   
*             Plate   
*             | Screen Grid   
*             | | Control Grid   
*             | | | Cathode   
*             | | | |
.SUBCKT 6BM8P_ayumi A G2 G1 K
.param GG  {(V(G1,K)+0.90753334)}
.param EP  {URAMP(V(A,K))}
.param EG  {URAMP(V(G1,K))}
.param EG2 {URAMP(V(G2,K))}
.param M1  {((0.058205333*EG2)^-0.96337515)}
.param M2  {((0.60892065*URAMP(GG+EG2/6.7189608))^2.4633752)}
.param P   {(0.0032859022*URAMP(GG+EG2/11.034214)^1.5)}
.param IK  {(U(GG)*P+(1-U(GG))*0.0021448732*M1*M2)}
.param IG  {(0.0016429511*EG^1.5*(EG/(EP+EG)*1.2+0.4))}
.param IK2 {((IK-IG)*(1-0.4*(EXP(-EP/(EG2+1e-10)*15)-EXP(-15))))}
.param IG2T {(IK2*(0.8420837*(1-EP/(EP+10))^1.5+0.1579163))}
.param IK3 {(IK2*(EP+850)/(EG2+850))}
.param IK4 {(IK3-URAMP(IK3-(0.002099612*(EP+URAMP(EG2-EP))^1.5)))}
.param IP  {URAMP(IK4-IG2T-URAMP(IK4-IG2T-(0.002099612*EP^1.5)))}
BIAK A  K I=IP+1e-10*V(A,K)
BIG2 G2 K I=URAMP(IK4-IP)
BIGK G1 K I=IG   
* CAPS
CGA G1 A  0.3p
CGK G1 K  5.4p
C12 G1 G2 3.6p
CAK A  K  7.7p
.ENDS   

* Generic pentode model: 6BQ5   
* Copyright 2003--2008 by Ayumi Nakabayashi, All rights reserved.   
* Thanks to Tooru Kuroda.   
* Version 3.10, Generated on Sat Mar  8 22:39:19 2008   
*            Plate   
*            | Screen Grid   
*            | | Control Grid   
*            | | | Cathode   
*            | | | |
.SUBCKT 6BQ5_ayumi A G2 G1 K
.param GG  {(V(G1,K)+0.03372597)}
.param EP  {URAMP(V(A,K))}
.param EG  {URAMP(V(G1,K))}
.param EG2 {URAMP(V(G2,K))}
.param M1  {((0.014266539*EG2)^-0.43210132)}
.param M2  {((0.7763568*URAMP(GG+EG2/15.676066))^1.9321013)}
.param P   {(0.0040800354*URAMP(GG+EG2/20.191832)^1.5)}
.param IK  {(U(GG)*P+(1-U(GG))*0.0023829269*M1*M2)}
.param IG  {(0.0020400177*EG^1.5*(EG/(EP+EG)*1.2+0.4))}
.param IK2 {((IK-IG)*(1-0.4*(EXP(-EP/(EG2+1e-10)*15)-EXP(-15))))}
.param IG2T {(IK2*(0.904015183*(1-EP/(EP+10))^1.5+0.095984817))}
.param IK3 {(IK2*(EP+2486)/(EG2+2486))}
.param IK4 {(IK3-URAMP(IK3-(0.0023468355*(EP+URAMP(EG2-EP))^1.5)))}
.param IP  {URAMP(IK4-IG2T-URAMP(IK4-IG2T-(0.0023468355*EP^1.5)))}
BIAK A  K I=IP+1e-10*V(A,K)
BIG2 G2 K I=URAMP(IK4-IP)
BIGK G1 K I=IG   
* CAPS
CGA G1 A  0.5p
CGK G1 K  6.2p
C12 G1 G2 4.1p
CAK A  K  6p
.ENDS   

* Generic pentode model: 6BQ6   
* Copyright 2003--2008 by Ayumi Nakabayashi, All rights reserved.   
* Thanks to Tooru Kuroda.   
* Version 3.10, Generated on Sat Mar  8 22:39:21 2008   
*            Plate   
*            | Screen Grid   
*            | | Control Grid   
*            | | | Cathode   
*            | | | |
.SUBCKT 6BQ6_ayumi A G2 G1 K
.param GG  {(V(G1,K)+-0.12830687)}
.param EP  {URAMP(V(A,K))}
.param EG  {URAMP(V(G1,K))}
.param EG2 {URAMP(V(G2,K))}
.param M1  {((0.15009144*EG2)^-1.2848724)}
.param M2  {((0.53862432*URAMP(GG+EG2/3.0739639))^2.7848724)}
.param P   {(0.0022372419*URAMP(GG+EG2/5.7070648)^1.5)}
.param IK  {(U(GG)*P+(1-U(GG))*0.0018337045*M1*M2)}
.param IG  {(0.0011186209*EG^1.5*(EG/(EP+EG)*1.2+0.4))}
.param IK2 {((IK-IG)*(1-0.4*(EXP(-EP/(EG2+1e-10)*15)-EXP(-15))))}
.param IG2T {(IK2*(0.971797202*(1-EP/(EP+10))^1.5+0.028202798))}
.param IK3 {(IK2*(EP+1560)/(EG2+1560))}
.param IK4 {(IK3-URAMP(IK3-(0.0017316916*(EP+URAMP(EG2-EP))^1.5)))}
.param IP  {URAMP(IK4-IG2T-URAMP(IK4-IG2T-(0.0017316916*EP^1.5)))}
BIAK A  K I=IP+1e-10*V(A,K)
BIG2 G2 K I=URAMP(IK4-IP)
BIGK G1 K I=IG   
* CAPS
CGA G1 A  0.6p
CGK G1 K  8.7p
C12 G1 G2 5.8p
CAK A  K  6.4p
.ENDS   

* Generic pentode model: 6BR7   
* Copyright 2003--2008 by Ayumi Nakabayashi, All rights reserved.   
* Thanks to Tooru Kuroda.   
* Version 3.10, Generated on Sat Mar  8 22:39:24 2008   
*            Plate   
*            | Screen Grid   
*            | | Control Grid   
*            | | | Cathode   
*            | | | |
.SUBCKT 6BR7_ayumi A G2 G1 K
.param GG  {(V(G1,K)+0.48180983)}
.param EP  {URAMP(V(A,K))}
.param EG  {URAMP(V(G1,K))}
.param EG2 {URAMP(V(G2,K))}
.param M1  {((0.013959713*EG2)^-0.49250535)}
.param M2  {((0.75282106*URAMP(GG+EG2/17.706591))^1.9925054)}
.param P   {(0.00084041925*URAMP(GG+EG2/23.520318)^1.5)}
.param IK  {(U(GG)*P+(1-U(GG))*0.00048560243*M1*M2)}
.param IG  {(0.00042020962*EG^1.5*(EG/(EP+EG)*1.2+0.4))}
.param IK2 {((IK-IG)*(1-0.4*(EXP(-EP/(EG2+1e-10)*15)-EXP(-15))))}
.param IG2T {(IK2*(0.76161675*(1-EP/(EP+10))^1.5+0.23838325))}
.param IK3 {(IK2*(EP+4400)/(EG2+4400))}
.param IK4 {(IK3-URAMP(IK3-(0.00047437278*(EP+URAMP(EG2-EP))^1.5)))}
.param IP  {URAMP(IK4-IG2T-URAMP(IK4-IG2T-(0.00047437278*EP^1.5)))}
BIAK A  K I=IP+1e-10*V(A,K)
BIG2 G2 K I=URAMP(IK4-IP)
BIGK G1 K I=IG   
* CAPS
CGA G1 A  0.01p
CGK G1 K  2.4p
C12 G1 G2 1.6p
CAK A  K  4p
.ENDS   

* Generic pentode model: 6CB5   
* Copyright 2003--2008 by Ayumi Nakabayashi, All rights reserved.   
* Thanks to Tooru Kuroda.   
* Version 3.10, Generated on Sat Mar  8 22:39:35 2008   
*            Plate   
*            | Screen Grid   
*            | | Control Grid   
*            | | | Cathode   
*            | | | |
.SUBCKT 6CB5_ayumi A G2 G1 K
.param GG  {(V(G1,K)+0.12233722)}
.param EP  {URAMP(V(A,K))}
.param EG  {URAMP(V(G1,K))}
.param EG2 {URAMP(V(G2,K))}
.param M1  {((0.099225459*EG2)^-0.68051603)}
.param M2  {((0.68791056*URAMP(GG+EG2/3.1452557))^2.180516)}
.param P   {(0.0027158296*URAMP(GG+EG2/4.572187)^1.5)}
.param IK  {(U(GG)*P+(1-U(GG))*0.0015860374*M1*M2)}
.param IG  {(0.0013579148*EG^1.5*(EG/(EP+EG)*1.2+0.4))}
.param IK2 {((IK-IG)*(1-0.4*(EXP(-EP/(EG2+1e-10)*15)-EXP(-15))))}
.param IG2T {(IK2*(0.949431806*(1-EP/(EP+10))^1.5+0.050568194))}
.param IK3 {(IK2*(EP+1175)/(EG2+1175))}
.param IK4 {(IK3-URAMP(IK3-(0.0022959718*(EP+URAMP(EG2-EP))^1.5)))}
.param IP  {URAMP(IK4-IG2T-URAMP(IK4-IG2T-(0.0022959718*EP^1.5)))}
BIAK A  K I=IP+1e-10*V(A,K)
BIG2 G2 K I=URAMP(IK4-IP)
BIGK G1 K I=IG   
* CAPS
CGA G1 A  0.4p
CGK G1 K  13p
C12 G1 G2 8.6p
CAK A  K  9.6p
.ENDS   

* Generic pentode model: 6CB6   
* Copyright 2003--2008 by Ayumi Nakabayashi, All rights reserved.   
* Thanks to Tooru Kuroda.   
* Version 3.10, Generated on Sat Mar  8 22:39:37 2008   
*            Plate   
*            | Screen Grid   
*            | | Control Grid   
*            | | | Cathode   
*            | | | |
.SUBCKT 6CB6_ayumi A G2 G1 K
.param GG  {(V(G1,K)+0.7350712)}
.param EP  {URAMP(V(A,K))}
.param EG  {URAMP(V(G1,K))}
.param EG2 {URAMP(V(G2,K))}

.param M1  {((0.031445788*EG2)^-2.20504)}
.param M2  {((0.40485393*URAMP(GG+EG2/18.926098))^3.70504)}
.param P   {(0.0046867337*URAMP(GG+EG2/46.747967)^1.5)}
.param IK  {(U(GG)*P+(1-U(GG))*0.010960467*M1*M2)}
.param IG  {(0.0023433669*EG^1.5*(EG/(EP+EG)*1.2+0.4))}
.param IK2 {((IK-IG)*(1-0.4*(EXP(-EP/(EG2+1e-10)*15)-EXP(-15))))}
.param IG2T {(IK2*(0.78046782*(1-EP/(EP+10))^1.5+0.21953218))}
.param IK3 {(IK2*(EP+21225)/(EG2+21225))}
.param IK4 {(IK3-URAMP(IK3-(0.0024945513*(EP+URAMP(EG2-EP))^1.5)))}
.param IP  {URAMP(IK4-IG2T-URAMP(IK4-IG2T-(0.0024945513*EP^1.5)))}
BIAK A  K I=IP+1e-10*V(A,K)
BIG2 G2 K I=URAMP(IK4-IP)
BIGK G1 K I=IG   
* CAPS
CGA G1 A  0.02p
CGK G1 K  3.9p
C12 G1 G2 2.6p
CAK A  K  1.9p
.ENDS   

* Generic pentode model: 6CD6   
* Copyright 2003--2008 by Ayumi Nakabayashi, All rights reserved.   
* Thanks to Tooru Kuroda.   
* Version 3.10, Generated on Sat Mar  8 22:39:38 2008   
*            Plate   
*            | Screen Grid   
*            | | Control Grid   
*            | | | Cathode   
*            | | | |
.SUBCKT 6CD6_ayumi A G2 G1 K
.param GG  {(V(G1,K)+-0.11853336)}
.param EP  {URAMP(V(A,K))}
.param EG  {URAMP(V(G1,K))}
.param EG2 {URAMP(V(G2,K))}
.param M1  {((0.13222789*EG2)^-1.0472626)}
.param M2  {((0.58886744*URAMP(GG+EG2/3.1092727))^2.5472626)}
.param P   {(0.0032013575*URAMP(GG+EG2/5.2800894)^1.5)}
.param IK  {(U(GG)*P+(1-U(GG))*0.0021974746*M1*M2)}
.param IG  {(0.0016006788*EG^1.5*(EG/(EP+EG)*1.2+0.4))}
.param IK2 {((IK-IG)*(1-0.4*(EXP(-EP/(EG2+1e-10)*15)-EXP(-15))))}
.param IG2T {(IK2*(0.943534714*(1-EP/(EP+10))^1.5+0.056465286))}
.param IK3 {(IK2*(EP+2412.5)/(EG2+2412.5))}
.param IK4 {(IK3-URAMP(IK3-(0.0025519299*(EP+URAMP(EG2-EP))^1.5)))}
.param IP  {URAMP(IK4-IG2T-URAMP(IK4-IG2T-(0.0025519299*EP^1.5)))}
BIAK A  K I=IP+1e-10*V(A,K)
BIG2 G2 K I=URAMP(IK4-IP)
BIGK G1 K I=IG   
* CAPS
CGA G1 A  1.1p
CGK G1 K  12.6p
C12 G1 G2 8.4p
CAK A  K  7.5p
.ENDS   

* Generic pentode model: 6CL6   
* Copyright 2003--2008 by Ayumi Nakabayashi, All rights reserved.   
* Thanks to Tooru Kuroda.   
* Version 3.10, Generated on Sat Mar  8 22:39:43 2008   
*            Plate   
*            | Screen Grid   
*            | | Control Grid   
*            | | | Cathode   
*            | | | |
.SUBCKT 6CL6_ayumi A G2 G1 K
.param GG  {(V(G1,K)+0.23313833)}
.param EP  {URAMP(V(A,K))}
.param EG  {URAMP(V(G1,K))}
.param EG2 {URAMP(V(G2,K))}
.param M1  {((0.023688975*EG2)^-0.93652529)}
.param M2  {((0.6156308*URAMP(GG+EG2/16.225658))^2.4365253)}
.param P   {(0.0060982027*URAMP(GG+EG2/26.356151)^1.5)}
.param IK  {(U(GG)*P+(1-U(GG))*0.0039229723*M1*M2)}
.param IG  {(0.0030491014*EG^1.5*(EG/(EP+EG)*1.2+0.4))}
.param IK2 {((IK-IG)*(1-0.4*(EXP(-EP/(EG2+1e-10)*15)-EXP(-15))))}
.param IG2T {(IK2*(0.81697318*(1-EP/(EP+10))^1.5+0.18302682))}
.param IK3 {(IK2*(EP+3450)/(EG2+3450))}
.param IK4 {(IK3-URAMP(IK3-(0.0033994382*(EP+URAMP(EG2-EP))^1.5)))}
.param IP  {URAMP(IK4-IG2T-URAMP(IK4-IG2T-(0.0033994382*EP^1.5)))}
BIAK A  K I=IP+1e-10*V(A,K)
BIG2 G2 K I=URAMP(IK4-IP)
BIGK G1 K I=IG   
* CAPS
CGA G1 A  0.12p
CGK G1 K  6.5p
C12 G1 G2 4.4p
CAK A  K  5.4p
.ENDS   

* Generic pentode model: 6CW5   
* Copyright 2003--2008 by Ayumi Nakabayashi, All rights reserved.   
* Thanks to Tooru Kuroda.   
* Version 3.10, Generated on Sat Mar  8 22:39:44 2008   
*            Plate   
*            | Screen Grid   
*            | | Control Grid   
*            | | | Cathode   
*            | | | |
.SUBCKT 6CW5_ayumi A G2 G1 K
.param GG  {(V(G1,K)+0.38874904)}
.param EP  {URAMP(V(A,K))}
.param EG  {URAMP(V(G1,K))}
.param EG2 {URAMP(V(G2,K))}
.param M1  {((0.09419804*EG2)^-1.560546)}
.param M2  {((0.49010862*URAMP(GG+EG2/5.4129723))^3.060546)}
.param P   {(0.0055371733*URAMP(GG+EG2/11.044434)^1.5)}
.param IK  {(U(GG)*P+(1-U(GG))*0.0058898823*M1*M2)}
.param IG  {(0.0027685867*EG^1.5*(EG/(EP+EG)*1.2+0.4))}
.param IK2 {((IK-IG)*(1-0.4*(EXP(-EP/(EG2+1e-10)*15)-EXP(-15))))}
.param IG2T {(IK2*(0.945717092*(1-EP/(EP+10))^1.5+0.054282908))}
.param IK3 {(IK2*(EP+2245)/(EG2+2245))}
.param IK4 {(IK3-URAMP(IK3-(0.0035373923*(EP+URAMP(EG2-EP))^1.5)))}
.param IP  {URAMP(IK4-IG2T-URAMP(IK4-IG2T-(0.0035373923*EP^1.5)))}
BIAK A  K I=IP+1e-10*V(A,K)
BIG2 G2 K I=URAMP(IK4-IP)
BIGK G1 K I=IG   
* CAPS
CGA G1 A  0.6p
CGK G1 K  6.9p
C12 G1 G2 4.6p
CAK A  K  5.4p
.ENDS   

* Generic pentode model: 6DQ5   