*These models were developed by the Predictive Technology Model at Arizona State University
*http://www.eas.asu.edu/~ptm/

*References:
*W. Zhao, Y. Cao, "New generation of Predictive Technology Model for sub-45nm design exploration," 
*pp. 585-590, ISQED, 2006. 
*Y. Cao, T. Sato, D. Sylvester, M. Orshansky, C. Hu, "New paradigm of predictive MOSFET and 
*interconnect modeling for early circuit design," pp. 201-204, CICC, 2000. 

*
* Predictive Technology Model Beta Version
* 180nm NMOS SPICE Parametersv (normal one)
*
.model BSIM3_180nm_N NMOS
+Level = 49

+Lint = 4.e-08 Tox = 4.e-09 
+Vth0 = 0.3999 Rdsw = 250 

+lmin=1.8e-7 lmax=1.8e-7 wmin=1.8e-7 wmax=1.0e-4 version =3.1
+Xj= 6.0000000E-08         Nch= 5.9500000E+17 
+lln= 1.0000000            lwn= 1.0000000              wln= 0.00
+wwn= 0.00                 ll= 0.00
+lw= 0.00                  lwl= 0.00                   wint= 0.00
+wl= 0.00                  ww= 0.00                    wwl= 0.00
+Mobmod=  1                binunit= 2                  
+binflag=  0
+Dwg= 0.00                 Dwb= 0.00 

+K1= 0.5613000               K2= 1.0000000E-02 
+K3= 0.00                  Dvt0= 8.0000000             Dvt1= 0.7500000 
+Dvt2= 8.0000000E-03       Dvt0w= 0.00                 Dvt1w= 0.00 
+Dvt2w= 0.00               Nlx= 1.6500000E-07          W0= 0.00 
+K3b= 0.00                 Ngate= 5.0000000E+20 

+Vsat= 1.3800000E+05       Ua= -7.0000000E-10          Ub= 3.5000000E-18 
+Uc= -5.2500000E-11        Prwb= 0.00 		             PBSW= 0.841
+Prwg= 0.00                Wr= 1.0000000               U0= 3.5000000E-02 
+A0= 1.1000000             Keta= 4.0000000E-02         A1= 0.00 
+A2= 1.0000000             Ags= -1.0000000E-02         B0= 0.00 
+B1= 0.00 

+Voff= -0.12350000          NFactor= 0.9000000          Cit= 0.00 
+Cdsc= 0.00                Cdscb= 0.00                 Cdscd= 0.00 
+Eta0= 0.2200000           Etab= 0.00                  Dsub= 0.8000000 

+Pclm= 5.0000000E-02       Pdiblc1= 1.2000000E-02      Pdiblc2= 7.5000000E-03 
+Pdiblcb= -1.3500000E-02   Drout= 1.7999999E-02        Pscbe1= 8.6600000E+08 
+Pscbe2= 1.0000000E-20     Pvag= -0.2800000            Delta= 1.0000000E-02 
+Alpha0= 0.00              Beta0= 30.0000000 

+kt1= -0.3700000           kt2= -4.0000000E-02         At= 5.5000000E+04 
+Ute= -1.4800000           Ua1= 9.5829000E-10          Ub1= -3.3473000E-19 
+Uc1= 0.00                 Kt1l= 4.0000000E-09         Prt= 0.00 

+Cj= 0.00365               Mj= 0.54                    Pb= 0.982
+Cjsw= 7.9E-10             Mjsw= 0.31                  
+JS=1.50E-08                 JSW=2.50E-13
+N=1.0                     Xti=3.0                     Cgdo=2.786E-10
+Cgso=2.786E-10            Cgbo=0.0E+00                Capmod= 2
+NQSMOD= 0                 Elm= 5                      Xpart= 1
+Cgsl= 1.6E-10             Cgdl= 1.6E-10               Ckappa= 2.886
+Cf= 1.069e-10             Clc= 0.0000001              Cle= 0.6
+Dlc= 4E-08                Dwc= 0                      Vfbcv= -1
*Additional parameters
*+  Tref=27.0 xl=0 xw=0 Pta= 0 Ptp=0 Cta=0 Ctp=0 

*
* Predictive Technology Model Beta Version
* 180nm PMOS SPICE Parametersv (normal one)
*

.model BSIM3_180nm_P PMOS
+Level = 49

+Lint = 3.e-08 Tox = 4.2e-09 
+Vth0 = -0.42 Rdsw = 450 

+lmin=1.8e-7 lmax=1.8e-7 wmin=1.8e-7 wmax=1.0e-4 version =3.1
+Xj= 7.0000000E-08         Nch= 5.9200000E+17 
+lln= 1.0000000            lwn= 1.0000000              wln= 0.00
+wwn= 0.00                 ll= 0.00
+lw= 0.00                  lwl= 0.00                   wint= 0.00
+wl= 0.00                  ww= 0.00                    wwl= 0.00
+Mobmod=  1                binunit= 2                  
+binflag=  0               Dwg= 0.00                   Dwb= 0.00 

+rsh= 0                    rd= 0                       rs= 0

+K1= 0.5560000             K2= 0.00 
+K3= 0.00                  Dvt0= 11.2000000            Dvt1= 0.7200000 
+Dvt2= -1.0000000E-02      Dvt0w= 0.00                 Dvt1w= 0.00 
+Dvt2w= 0.00               Nlx= 9.5000000E-08          W0= 0.00 
+K3b= 0.00                 Ngate= 5.0000000E+20 

+Vsat= 1.0500000E+05       Ua= -1.2000000E-10          Ub= 1.0000000E-18 
+Uc= -2.9999999E-11        Prwb= 0.00 						 Pbsw=0.841
+Prwg= 0.00                Wr= 1.0000000               U0= 8.0000000E-03 
+A0= 2.1199999             Keta= 2.9999999E-02         A1= 0.00 
+A2= 0.4000000             Ags= -0.1000000             B0= 0.00 
+B1= 0.00 

+Voff= -6.40000000E-02      NFactor= 1.4000000          Cit= 0.00 
+Cdsc= 0.00                Cdscb= 0.00                 Cdscd= 0.00 
+Eta0= 8.5000000           Etab= 0.00                  Dsub= 2.8000000 

+Pclm= 2.0000000           Pdiblc1= 0.1200000          Pdiblc2= 8.0000000E-05 
+Pdiblcb= 0.1450000        Drout= 5.0000000E-02        Pscbe1= 1.0000000E-20 
+Pscbe2= 1.0000000E-20     Pvag= -6.0000000E-02        Delta= 1.0000000E-02 
+Alpha0= 0.00              Beta0= 30.0000000 

+kt1= -0.3700000           kt2= -4.0000000E-02         At= 5.5000000E+04 
+Ute= -1.4800000           Ua1= 9.5829000E-10          Ub1= -3.3473000E-19 
+Uc1= 0.00                 Kt1l= 4.0000000E-09         Prt= 0.00 

+Cj= 0.00138               Mj= 1.05                    Pb= 1.24
+Cjsw= 1.44E-09            Mjsw= 0.43                  
+JS=1.50E-08                 JSW=2.50E-13
+N=1.0                     Xti=3.0                     Cgdo=2.786E-10
+Cgso=2.786E-10            Cgbo=0.0E+00                Capmod= 2
+NQSMOD= 0                 Elm= 5                      Xpart= 1
+Cgsl= 1.6E-10             Cgdl= 1.6E-10               Ckappa= 2.886
+Cf= 1.058e-10             Clc= 0.0000001              Cle= 0.6
+Dlc= 3E-08                Dwc= 0                      Vfbcv= -1
*Additional parameters
*+Tref=27.0 xl= 0.00 xw= 0.00 Pta= 0.00153 Ptp= 0 Cta= 0.00093 Ctp= 0  
*+ACM= 0 ldif=0.00 hdif=0.00 rsc= 0 rdc= 0


*
* Predictive Technology Model Beta Version
* 130nm NMOS SPICE Parametersv (normal one)
*
.model BSIM3_130nm_N NMOS
+Level = 49

+Lint = 2.5e-08 Tox = 3.3e-09 
+Vth0 = 0.332 Rdsw = 200 

+lmin=1.3e-7 lmax=1.3e-7 wmin=1.3e-7 wmax=1.0e-4 version =3.1
+Xj= 4.5000000E-08          Nch= 5.6000000E+17 
+lln= 1.0000000            lwn= 0.00                  wln= 0.00
+wwn= 1.0000000            ll= 0.00
+lw= 0.00                  lwl= 0.00                  wint= 0.00
+wl= 0.00                  ww= 0.00                   wwl= 0.00
+Mobmod= 1                 binunit= 2                 binflag=  0
+Dwg= 0.00                 Dwb= 0.00 

+K1= 0.3661500              K2= 0.00 
+K3= 0.00                  Dvt0= 8.7500000            Dvt1= 0.7000000 
+Dvt2= 5.0000000E-02       Dvt0w= 0.00                Dvt1w= 0.00 
+Dvt2w= 0.00               Nlx= 3.5500000E-07         W0= 0.00 
+K3b= 0.00                 Ngate= 5.0000000E+20 

+Vsat= 1.3500000E+05       Ua= -1.8000000E-09         Ub= 2.2000000E-18 
+Uc= -2.9999999E-11        Prwb= 0.00 				      Pbsw=0.7731149
+Prwg= 0.00                Wr= 1.0000000              U0= 1.3400000E-02 
+A0= 2.1199999             Keta= 4.0000000E-02        A1= 0.00 
+A2= 0.9900000             Ags= -0.1000000            B0= 0.00 
+B1= 0.00 

+Voff= -7.9800000E-02      NFactor= 1.1000000         Cit= 0.00 
+Cdsc= 0.00                Cdscb= 0.00                Cdscd= 0.00 
+Eta0= 4.0000000E-02       Etab= 0.00                 Dsub= 0.5200000 

+Pclm= 0.1000000           Pdiblc1= 1.2000000E-02     Pdiblc2= 7.5000000E-03 
+Pdiblcb= -1.3500000E-02   Drout= 0.2800000           Pscbe1= 8.6600000E+08 
+Pscbe2= 1.0000000E-20     Pvag= -0.2800000           Delta= 1.0100000E-02 
+Alpha0= 0.00              Beta0= 30.0000000 

+kt1= -0.3400000           kt2= -5.2700000E-02        At= 0.00 
+Ute= -1.2300000           Ua1= -8.6300000E-10        Ub1= 2.0000001E-18 
+Uc1= 0.00                 Kt1l= 4.0000000E-09        Prt= 0.00 

+Cj= 0.0015                Mj= 0.7175511              Pb= 1.24859
+Cjsw= 2E-10               Mjsw= 0.3706993            
+JS=2.50E-08                JSW=4.00E-13
+N=1.0                     Xti=3.0                    Cgdo=2.75E-10
+Cgso=2.75E-10             Cgbo=0.0E+00               Capmod= 2
+NQSMOD= 0                 Elm= 5                     Xpart= 1
+Cgsl= 1.1155E-10          Cgdl= 1.1155E-10           Ckappa= 0.8912
+Cf= 1.113e-10             Clc= 5.475E-08             Cle= 6.46
+Dlc= 2E-08                Dwc= 0                     Vfbcv= -1
*Additional parameters
*+Tref=27.0 xl=0 xw=0 Cta= 9.290391E-04 
*+Ctp=7.456211E-04 Pta=1.527748E-03 Ptp= 1.56325E-03
*
* Predictive Technology Model Beta Version
* 130nm PMOS SPICE Parametersv (normal one)
*
.model BSIM3_130nm_P PMOS
+Level = 49

+Lint = 2.e-08 Tox = 3.3e-09 
+Vth0 = -0.3499 Rdsw = 400 

+lmin=1.3e-7 lmax=1.3e-7 wmin=1.3e-7 wmax=1.0e-4 version =3.1
+Xj= 4.5000000E-08         Nch= 6.8500000E+18 
+lln= 0.00                 lwn= 0.00                  wln= 0.00
+wwn= 0.00                 ll= 0.00
+lw= 0.00                  lwl= 0.00                  wint= 0.00
+wl= 0.00                  ww= 0.00                   wwl= 0.00
+Mobmod=  1                binunit= 2                 binflag=  0
+Dwg= 0.00                 Dwb= 0.00 

+K1= 0.4087000             K2= 0.00 
+K3= 0.00                  Dvt0= 5.0000000            Dvt1= 0.2600000 
+Dvt2= -1.0000000E-02      Dvt0w= 0.00                Dvt1w= 0.00 
+Dvt2w= 0.00               Nlx= 1.6500000E-07         W0= 0.00 
+K3b= 0.00                 Ngate= 5.0000000E+20 

+Vsat= 1.0500000E+05       Ua= -1.4000000E-09         Ub= 1.9499999E-18 
+Uc= -2.9999999E-11        Prwb= 0.00 				      Pbsw= 0.7731149
+Prwg= 0.00                Wr= 1.0000000              U0= 5.2000000E-03 
+A0= 2.1199999             Keta= 3.0300001E-02        A1= 0.00 
+A2= 0.4000000             Ags= 0.1000000             B0= 0.00 
+B1= 0.00 

+Voff= -9.10000000E-02     NFactor= 0.1250000         Cit= 2.7999999E-03 
+Cdsc= 0.00                Cdscb= 0.00                Cdscd= 0.00 
+Eta0= 80.0000000          Etab= 0.00                 Dsub= 1.8500000 

+Pclm= 2.5000000           Pdiblc1= 4.8000000E-02     Pdiblc2= 5.0000000E-05 
+Pdiblcb= 0.1432509        Drout= 9.0000000E-02       Pscbe1= 1.0000000E-20 
+Pscbe2= 1.0000000E-20     Pvag= -6.0000000E-02       Delta= 1.0100000E-02 
+Alpha0= 0.00              Beta0= 30.0000000 

+kt1= -0.3400000           kt2= -5.2700000E-02        At= 0.00 
+Ute= -1.2300000           Ua1= -8.6300000E-10        Ub1= 2.0000001E-18 
+Uc1= 0.00                 Kt1l= 4.0000000E-09        Prt= 0.00 

+Cj= 0.0015                Mj= 0.7175511              Pb= 1.24859
+Cjsw= 2E-10               Mjsw= 0.3706993            
+JS=2.50E-08               JSW=4.00E-13
+N=1.0                     Xti=3.0                   Cgdo=2.75E-10
+Cgso=2.75E-10             Cgbo=0.0E+00              Capmod= 2
+NQSMOD= 0                 Elm= 5                    Xpart= 1
+Cgsl= 1.1155E-10          Cgdl= 1.1155E-10          Ckappa= 0.8912
+Cf= 1.113e-10             Clc= 5.475E-08            Cle= 6.46
+Dlc= 2E-08                Dwc= 0                    Vfbcv= -1
*Additional parameters
*+Tref=27.0 xl=0 xw=0 Ptp= 1.56325E-03
*+Cta=9.290391E-04 Ctp=7.456211E-04 Pta=1.527748E-03

*
* Predictive Technology Model Beta Version
* 90nm NMOS SPICE Parametersv (normal one)
*
.model BSIM3_90nm_N NMOS
+Level = 49

+Lint = 1.5e-08 Tox = 2.5e-09 
+Vth0 = 0.2607 Rdsw = 180 

+lmin=1.0e-7 lmax=1.0e-7 wmin=1.0e-7 wmax=1.0e-4
+version =3.1
+Xj= 4.0000000E-08       Nch= 9.7000000E+17 
+lln= 1.0000000          lwn= 1.0000000              wln= 0.00
+wwn= 0.00               ll= 0.00
+lw= 0.00                lwl= 0.00                   wint= 0.00
+wl= 0.00                ww= 0.00                    wwl= 0.00
+Mobmod=  1              binunit= 2                  binflag=  0
+Dwg= 0.00               Dwb= 0.00 

+rsh= 7                  rd= 0                       rs= 0

+K1= 0.3950000           K2= 1.0000000E-02           K3= 0.00 
+Dvt0= 1.0000000         Dvt1= 0.4000000             Dvt2= 0.1500000 
+Dvt0w= 0.00             Dvt1w= 0.00                 Dvt2w= 0.00 
+Nlx= 4.8000000E-08      W0= 0.00                    K3b= 0.00 
+Ngate= 5.0000000E+20 

+Vsat= 1.1000000E+05     Ua= -6.0000000E-10          Ub= 8.0000000E-19 
+Uc= -2.9999999E-11       
+Prwb= 0.00              Prwg= 0.00                  Wr= 1.0000000 
+U0= 1.7999999E-02       A0= 1.1000000               Keta= 4.0000000E-02 
+A1= 0.00                A2= 1.0000000               Ags= -1.0000000E-02
+B0= 0.00                B1= 0.00 

+Voff= -2.9999999E-02    NFactor= 1.5000000          Cit= 0.00 
+Cdsc= 0.00              Cdscb= 0.00                 Cdscd= 0.00 
+Eta0= 0.1500000         Etab= 0.00                  Dsub= 0.6000000 

+Pclm= 0.1000000         Pdiblc1= 1.2000000E-02      Pdiblc2= 7.5000000E-03
+Pdiblcb= -1.3500000E-02 Drout= 2.0000000            Pscbe1= 8.6600000E+08
+Pscbe2= 1.0000000E-20   Pvag= -0.2800000            Delta= 1.0000000E-02
+Alpha0= 0.00            Beta0= 30.0000000 
+kt1= -0.3700000         kt2= -4.0000000E-02         At= 5.5000000E+04 
+Ute= -1.4800000         Ua1= 9.5829000E-10          Ub1= -3.3473000E-19
+Uc1= 0.00               Kt1l= 4.0000000E-09         Prt= 0.00 

+Cj= 0.0015             Mj= 0.72                    Pb= 1.25 
+Cjsw= 2E-10            Mjsw= 0.37                  Pbsw= 0.773
+Cjswg= 2E-14           JS=1.50E-08
+JSW=2.50E-13            N=1.0                       Xti=3.0
+Cgdo=3.493E-10          Cgso=3.493E-10              Cgbo=0.0E+00
+Capmod= 2               NQSMOD= 0                   Elm= 5
+Xpart= 1                cgsl= 0.582E-10             cgdl= 0.582E-10
+ckappa= 0.28            cf= 1.177e-10               clc= 1.0000000E-07
+cle= 0.6000000          Dlc= 2E-08                  Dwc= 0
*Additional parameters
*+Tref=27.0 xl=0.00 xw=0.00 ACM=0 ldif=0.00 hdif=0.00 rsc=0 rdc=0
*+Cta=0 Ctp=0 Pta=0 Ptp=0

*
* Predictive Technology Model Beta Version
* 90nm PMOS SPICE Parametersv (normal one)
*
.model BSIM3_90nm_P PMOS
+Level = 49

+Lint = 1.5e-08 Tox = 2.5e-09 
+Vth0 = -0.303 Rdsw = 300 

+lmin=1.0e-7 lmax=1.0e-7 wmin=1.0e-7 wmax=1.0e-4
+version =3.1
+Xj= 4.0000000E-08             Nch= 1.0400000E+18 
+lln= 1.0000000                lwn= 0.00                          wln= 0.00
+wwn= 1.0000000                ll= 0.00                           lw= 0.00
+lwl= 0.00                     wint= 0.00                         wl= 0.00
+ww= 0.00                      wwl= 0.00                          Mobmod=  1
+binunit= 2                    
+binflag=  0                   Dwg= 0.00                          Dwb= 0.00

+rsh= 7                        rd= 0                              rs= 0

+K1= 0.3910000                 K2= 1.0000000E-02                  K3= 0.00 
+Dvt0= 2.6700001               Dvt1= 0.5300000                    Dvt2= 5.0000000E-02 
+Dvt0w= 0.00                   Dvt1w= 0.00                        Dvt2w= 0.00 
+Nlx= 7.5000000E-08            W0= 0.00                           K3b= 0.00 
+Ngate= 5.0000000E+20 

+Vsat= 1.0500000E+05           Ua= -5.0000000E-10                 Ub= 1.5000000E-18
+Uc= -2.9999999E-11  
+Prwb= 0.00                    Prwg= 0.00                         Wr= 1.0000000 
+U0= 5.5000000E-03             A0= 2.0000000                      Keta= 4.0000000E-02
+A1= 0.00                      A2= 0.9900000                      Ags= -0.1000000 
+B0= 0.00                      B1= 0.00 

+Voff= -7.0000000E-02          NFactor= 1.5000000                 Cit= 0.00 
+Cdsc= 0.00                    Cdscb= 0.00                        Cdscd= 0.00
+Eta0= 0.2500000               Etab= 0.00                         Dsub= 0.8000000 

+Pclm= 0.1000000               Pdiblc1= 1.2000000E-02             Pdiblc2= 7.5000000E-03 
+Pdiblcb= -1.3500000E-02       Drout= 0.9000000                   Pscbe1= 8.6600000E+08 
+Pscbe2= 1.0000000E-20         Pvag= -0.2800000                   Delta= 1.0100000E-02 
+Alpha0= 0.00                  Beta0= 30.0000000 

+kt1= -0.3400000               kt2= -5.2700000E-02                At= 0.00 
+Ute= -1.2300000               Ua1= -8.6300000E-10                Ub1= 2.0000001E-18 
+Uc1= 0.00                     Kt1l= 4.0000000E-09                Prt= 0.00 

+Cj= 0.0015                    Mj= 0.7175511                      Pb= 1.24859
+Cjsw= 2E-10                   Mjsw= 0.3706993                    Pbsw= 0.7731149
+Cjswg= 2E-14                  JS=2.50E-08
+JSW=4.00E-13                  N=1.0                              Xti=3.0
+Cgdo=3.49E-10                 Cgso=3.49E-10                      Cgbo=0.0E+00       
+Capmod= 2                     NQSMOD= 0                          Elm= 5            
+Xpart= 1                      cgsl= 0.582E-10                    cgdl= 0.582E-10
+ckappa= 0.28                  cf= 1.177e-10                      clc= 5.4750000E-08 
+cle= 6.4600000                Dlc= 2E-08                         Dwc= 0
*Additional parameters
*+Tref=27.0 xl=0.00 xw=0.00 ACM=0 ldif=0.00 hdif=0.00 rsc=0 rdc=0
*+Cta=9.290391E-04 Ctp=7.456211E-04 Pta=1.527748E-03 Ptp=1.56325E-03

* PTM 130nm NMOS 
.model  BSIM4_130nm_N  nmos  level = 14

+version = 4.0          binunit = 1            paramchk= 1            mobmod  = 0          
+capmod  = 2            igcmod  = 1            igbmod  = 1            geomod  = 1          
+diomod  = 1            rdsmod  = 0            rbodymod= 1            rgatemod= 1          
+permod  = 1            acnqsmod= 0            trnqsmod= 0          

+tnom    = 27           toxe    = 2.25e-9      toxp    = 1.6e-9       toxm    = 2.25e-9   
+dtox    = 0.65e-9      epsrox  = 3.9          wint    = 5e-009       lint    = 10.5e-009   
+ll      = 0            wl      = 0            lln     = 1            wln     = 1          
+lw      = 0            ww      = 0            lwn     = 1            wwn     = 1          
+lwl     = 0            wwl     = 0            xpart   = 0            toxref  = 2.25e-9   
+xl      = -60e-9
+vth0    = 0.3782       k1      = 0.4          k2      = 0.01         k3      = 0          
+k3b     = 0            w0      = 2.5e-006     dvt0    = 1            dvt1    = 2       
+dvt2    = -0.032       dvt0w   = 0            dvt1w   = 0            dvt2w   = 0          
+dsub    = 0.1          minv    = 0.05         voffl   = 0            dvtp0   = 1.2e-010     
+dvtp1   = 0.1          lpe0    = 0            lpeb    = 0            xj      = 3.92e-008   
+ngate   = 2e+020       ndep    = 1.54e+018    nsd     = 2e+020       phin    = 0          
+cdsc    = 0.0002       cdscb   = 0            cdscd   = 0            cit     = 0          
+voff    = -0.13        nfactor = 1.5          eta0    = 0.0092       etab    = 0          
+vfb     = -0.55        u0      = 0.05928      ua      = 6e-010       ub      = 1.2e-018     
+uc      = 0            vsat    = 100370       a0      = 1            ags     = 1e-020     
+a1      = 0            a2      = 1            b0      = 0            b1      = 0          
+keta    = 0.04         dwg     = 0            dwb     = 0            pclm    = 0.06       
+pdiblc1 = 0.001        pdiblc2 = 0.001        pdiblcb = -0.005       drout   = 0.5        
+pvag    = 1e-020       delta   = 0.01         pscbe1  = 8.14e+008    pscbe2  = 1e-007     
+fprout  = 0.2          pdits   = 0.08         pditsd  = 0.23         pditsl  = 2.3e+006   
+rsh     = 5            rdsw    = 200          rsw     = 100          rdw     = 100        
+rdswmin = 0            rdwmin  = 0            rswmin  = 0            prwg    = 0          
+prwb    = 6.8e-011     wr      = 1            alpha0  = 0.074        alpha1  = 0.005      
+beta0   = 30           agidl   = 0.0002       bgidl   = 2.1e+009     cgidl   = 0.0002     
+egidl   = 0.8          

+aigbacc = 0.012        bigbacc = 0.0028       cigbacc = 0.002     
+nigbacc = 1            aigbinv = 0.014        bigbinv = 0.004        cigbinv = 0.004      
+eigbinv = 1.1          nigbinv = 3            aigc    = 0.012        bigc    = 0.0028     
+cigc    = 0.002        aigsd   = 0.012        bigsd   = 0.0028       cigsd   = 0.002     
+nigc    = 1            poxedge = 1            pigcd   = 1            ntox    = 1          

+xrcrg1  = 12           xrcrg2  = 5          
+cgso    = 2.4e-010     cgdo    = 2.4e-010     cgbo    = 2.56e-011    cgdl    = 2.653e-10     
+cgsl    = 2.653e-10    ckappas = 0.03         ckappad = 0.03         acde    = 1          
+moin    = 15           noff    = 0.9          voffcv  = 0.02       

+kt1     = -0.11        kt1l    = 0            kt2     = 0.022        ute     = -1.5       
+ua1     = 4.31e-009    ub1     = 7.61e-018    uc1     = -5.6e-011    prt     = 0          
+at      = 33000      

+fnoimod = 1            tnoimod = 0          

+jss     = 0.0001       jsws    = 1e-011       jswgs   = 1e-010       njs     = 1          
+ijthsfwd= 0.01         ijthsrev= 0.001        bvs     = 10           xjbvs   = 1          
+jsd     = 0.0001       jswd    = 1e-011       jswgd   = 1e-010       njd     = 1          
+ijthdfwd= 0.01         ijthdrev= 0.001        bvd     = 10           xjbvd   = 1          
+pbs     = 1            cjs     = 0.0005       mjs     = 0.5          pbsws   = 1          
+cjsws   = 5e-010       mjsws   = 0.33         pbswgs  = 1            cjswgs  = 3e-010     
+mjswgs  = 0.33         pbd     = 1            cjd     = 0.0005       mjd     = 0.5        
+pbswd   = 1            cjswd   = 5e-010       mjswd   = 0.33         pbswgd  = 1          
+cjswgd  = 5e-010       mjswgd  = 0.33         tpb     = 0.005        tcj     = 0.001      
+tpbsw   = 0.005        tcjsw   = 0.001        tpbswg  = 0.005        tcjswg  = 0.001      
+xtis    = 3            xtid    = 3          

+dmcg    = 0e-006       dmci    = 0e-006       dmdg    = 0e-006       dmcgt   = 0e-007     
+dwj     = 0.0e-008     xgw     = 0e-007       xgl     = 0e-008     

+rshg    = 0.4          gbmin   = 1e-010       rbpb    = 5            rbpd    = 15         
+rbps    = 15           rbdb    = 15           rbsb    = 15           ngcon   = 1          
*Additional parameters

* PTM 130nm PMOS
.model  BSIM4_130nm_P  pmos  level = 14

+version = 4.0          binunit = 1            paramchk= 1            mobmod  = 0          
+capmod  = 2            igcmod  = 1            igbmod  = 1            geomod  = 1          
+diomod  = 1            rdsmod  = 0            rbodymod= 1            rgatemod= 1          
+permod  = 1            acnqsmod= 0            trnqsmod= 0          

+tnom    = 27           toxe    = 2.35e-009    toxp    = 1.6e-009     toxm    = 2.35e-009   
+dtox    = 0.75e-9      epsrox  = 3.9          wint    = 5e-009       lint    = 10.5e-009   
+ll      = 0            wl      = 0            lln     = 1            wln     = 1          
+lw      = 0            ww      = 0            lwn     = 1            wwn     = 1          
+lwl     = 0            wwl     = 0            xpart   = 0            toxref  = 2.35e-009   
+xl      = -60e-9
+vth0    = -0.321       k1      = 0.4          k2      = -0.01        k3      = 0          
+k3b     = 0            w0      = 2.5e-006     dvt0    = 1            dvt1    = 2       
+dvt2    = -0.032       dvt0w   = 0            dvt1w   = 0            dvt2w   = 0          
+dsub    = 0.1          minv    = 0.05         voffl   = 0            dvtp0   = 1e-009     
+dvtp1   = 0.05         lpe0    = 0            lpeb    = 0            xj      = 3.92e-008   
+ngate   = 2e+020       ndep    = 1.14e+018    nsd     = 2e+020       phin    = 0          
+cdsc    = 0.000258     cdscb   = 0            cdscd   = 6.1e-008     cit     = 0          
+voff    = -0.126       nfactor = 1.5          eta0    = 0.0092       etab    = 0          
+vfb     = 0.55         u0      = 0.00835      ua      = 2.0e-009     ub      = 0.5e-018     
+uc      = -3e-011      vsat    = 70000        a0      = 1.0          ags     = 1e-020     
+a1      = 0            a2      = 1            b0      = -1e-020      b1      = 0          
+keta    = -0.047       dwg     = 0            dwb     = 0            pclm    = 0.12       
+pdiblc1 = 0.001        pdiblc2 = 0.001        pdiblcb = 3.4e-008     drout   = 0.56       
+pvag    = 1e-020       delta   = 0.01         pscbe1  = 8.14e+008    pscbe2  = 9.58e-007  
+fprout  = 0.2          pdits   = 0.08         pditsd  = 0.23         pditsl  = 2.3e+006   
+rsh     = 5            rdsw    = 240          rsw     = 120          rdw     = 120        
+rdswmin = 0            rdwmin  = 0            rswmin  = 0            prwg    = 3.22e-008  
+prwb    = 6.8e-011     wr      = 1            alpha0  = 0.074        alpha1  = 0.005      
+beta0   = 30           agidl   = 0.0002       bgidl   = 2.1e+009     cgidl   = 0.0002     
+egidl   = 0.8          

+aigbacc = 0.012        bigbacc = 0.0028       cigbacc = 0.002     
+nigbacc = 1            aigbinv = 0.014        bigbinv = 0.004        cigbinv = 0.004      
+eigbinv = 1.1          nigbinv = 3            aigc    = 0.69         bigc    = 0.0012     
+cigc    = 0.0008       aigsd   = 0.0087       bigsd   = 0.0012       cigsd   = 0.0008     
+nigc    = 1            poxedge = 1            pigcd   = 1            ntox    = 1 
         
+xrcrg1  = 12           xrcrg2  = 5          
+cgso    = 2.4e-010     cgdo    = 2.4e-010     cgbo    = 2.56e-011    cgdl    = 2.653e-10
+cgsl    = 2.653e-10    ckappas = 0.03         ckappad = 0.03         acde    = 1
+moin    = 15           noff    = 0.9          voffcv  = 0.02

+kt1     = -0.11        kt1l    = 0            kt2     = 0.022        ute     = -1.5       
+ua1     = 4.31e-009    ub1     = 7.61e-018    uc1     = -5.6e-011    prt     = 0          
+at      = 33000      

+fnoimod = 1            tnoimod = 0          

+jss     = 0.0001       jsws    = 1e-011       jswgs   = 1e-010       njs     = 1          
+ijthsfwd= 0.01         ijthsrev= 0.001        bvs     = 10           xjbvs   = 1          
+jsd     = 0.0001       jswd    = 1e-011       jswgd   = 1e-010       njd     = 1          
+ijthdfwd= 0.01         ijthdrev= 0.001        bvd     = 10           xjbvd   = 1          
+pbs     = 1            cjs     = 0.0005       mjs     = 0.5          pbsws   = 1          
+cjsws   = 5e-010       mjsws   = 0.33         pbswgs  = 1            cjswgs  = 3e-010     
+mjswgs  = 0.33         pbd     = 1            cjd     = 0.0005       mjd     = 0.5        
+pbswd   = 1            cjswd   = 5e-010       mjswd   = 0.33         pbswgd  = 1          
+cjswgd  = 5e-010       mjswgd  = 0.33         tpb     = 0.005        tcj     = 0.001      
+tpbsw   = 0.005        tcjsw   = 0.001        tpbswg  = 0.005        tcjswg  = 0.001      
+xtis    = 3            xtid    = 3          

+dmcg    = 0e-006       dmci    = 0e-006       dmdg    = 0e-006       dmcgt   = 0e-007     
+dwj     = 0.0e-008     xgw     = 0e-007       xgl     = 0e-008     

+rshg    = 0.4          gbmin   = 1e-010       rbpb    = 5            rbpd    = 15         
+rbps    = 15           rbdb    = 15           rbsb    = 15           ngcon   = 1          
*Additional parameters

* Beta Version released on 2/22/06
* PTM 90nm NMOS 
.model  BSIM4_90nm_N  nmos  level = 14

+version = 4.0          binunit = 1            paramchk= 1            mobmod  = 0          
+capmod  = 2            igcmod  = 1            igbmod  = 1            geomod  = 1          
+diomod  = 1            rdsmod  = 0            rbodymod= 1            rgatemod= 1          
+permod  = 1            acnqsmod= 0            trnqsmod= 0          

+tnom    = 27           toxe    = 2.05e-9      toxp    = 1.4e-9       toxm    = 2.05e-9   
+dtox    = 0.65e-9      epsrox  = 3.9          wint    = 5e-009       lint    = 7.5e-009   
+ll      = 0            wl      = 0            lln     = 1            wln     = 1          
+lw      = 0            ww      = 0            lwn     = 1            wwn     = 1          
+lwl     = 0            wwl     = 0            xpart   = 0            toxref  = 2.05e-9   
+xl      = -40e-9
+vth0    = 0.397        k1      = 0.4          k2      = 0.01         k3      = 0          
+k3b     = 0            w0      = 2.5e-006     dvt0    = 1            dvt1    = 2       
+dvt2    = -0.032       dvt0w   = 0            dvt1w   = 0            dvt2w   = 0          
+dsub    = 0.1          minv    = 0.05         voffl   = 0            dvtp0   = 1.2e-009     
+dvtp1   = 0.1          lpe0    = 0            lpeb    = 0            xj      = 2.8e-008   
+ngate   = 2e+020       ndep    = 1.94e+018    nsd     = 2e+020       phin    = 0          
+cdsc    = 0.0002       cdscb   = 0            cdscd   = 0            cit     = 0          
+voff    = -0.13        nfactor = 1.7          eta0    = 0.0074       etab    = 0          
+vfb     = -0.55        u0      = 0.0547       ua      = 6e-010       ub      = 1.2e-018     
+uc      = -3e-011      vsat    = 113760       a0      = 1.0          ags     = 1e-020     
+a1      = 0            a2      = 1            b0      = -1e-020      b1      = 0          
+keta    = 0.04         dwg     = 0            dwb     = 0            pclm    = 0.06       
+pdiblc1 = 0.001        pdiblc2 = 0.001        pdiblcb = -0.005       drout   = 0.5        
+pvag    = 1e-020       delta   = 0.01         pscbe1  = 8.14e+008    pscbe2  = 1e-007     
+fprout  = 0.2          pdits   = 0.08         pditsd  = 0.23         pditsl  = 2.3e+006   
+rsh     = 5            rdsw    = 180          rsw     = 90           rdw     = 90        
+rdswmin = 0            rdwmin  = 0            rswmin  = 0            prwg    = 0          
+prwb    = 6.8e-011     wr      = 1            alpha0  = 0.074        alpha1  = 0.005      
+beta0   = 30           agidl   = 0.0002       bgidl   = 2.1e+009     cgidl   = 0.0002     
+egidl   = 0.8          

+aigbacc = 0.012        bigbacc = 0.0028       cigbacc = 0.002     
+nigbacc = 1            aigbinv = 0.014        bigbinv = 0.004        cigbinv = 0.004      
+eigbinv = 1.1          nigbinv = 3            aigc    = 0.012        bigc    = 0.0028     
+cigc    = 0.002        aigsd   = 0.012        bigsd   = 0.0028       cigsd   = 0.002     
+nigc    = 1            poxedge = 1            pigcd   = 1            ntox    = 1          
