* Spice Model
* Item:1N3350B
* Date: 9/6/17
* Revision History: B
*==========================================================
* This model was developed by: 
* Central Semiconductor Corp.
* 145 Adams Avenue
* Hauppauge, NY 11788
*
* These models are subject to change without notice.
* Users may not directly or indirectly re-sell or 
* re-distribute this model. This model may not 
* be modified, or altered without the consent of Central Semiconductor Corp. 
*
* For more information on this model contact
* Central Semiconductor Corp. at:
* (631) 435-1110 or Engineering@centralsemi.com
* http://www.centralsemi.com
**==========================================================
*SRC=sm_Zener;sm_Zener;SpiceMod;Test;DUT
*DWG CIRCUITS\SpiceMod\Zener\Zener.DWG
* Diodes;Zener >50V;200V 50.0W
*SYM=HZEN
.SUBCKT sm_Zener 1 2
* Terminals A K
D1 1 2 DF
DZ 3 1 DR
VZ 2 3 191
.MODEL DF D ( IS=103p RS=77.9m N=1.10
+ CJO=1.53n VJ=1.00 M=0.330 TT=50.1n )
.MODEL DR D ( IS=20.6f RS=98.8 N=3.00 )
.ENDS
******
* Spice Model
* Item: 1N3595
* Date: 7/21/10
* Revision History: A
* ==========================================================
* This model was developed by: 
* Central Semiconductor Corp.
* 145 Adams Avenue
* Hauppauge, NY 11788
*
* These models are subject to change without notice.
* Users may not directly or indirectly re-sell or 
* re-distribute this model. This model may not 
* be modified, or altered without the consent of Central Semiconductor Corp. 
*
* For more information on this model contact
* Central Semiconductor Corp. at:
* (631) 435-1110 or Engineering@centralsemi.com
* http://www.centralsemi.com
* ==========================================================
******
*SRC=1N3595;1N3595;Diodes;Rectifier;150V 0.150A 3us CS CS
.MODEL 1N3595 D (
+ IS=407.36E-12
+ N=1.7759
+ RS=.28325
+ IKF=9.7936
+ CJO=3.5499E-12
+ M=.29569
+ VJ=.3905
+ ISR=10.010E-21
+ NR=4.9950
+ BV=180.16
+ IBV=.52023
+ TT=144.27E-9)
************
* Spice Model
* Item: 1N3600
* Date: 7/22/10
* Revision History: A
* ==========================================================
* This model was developed by: 
* Central Semiconductor Corp.
* 145 Adams Avenue
* Hauppauge, NY 11788
*
* These models are subject to change without notice.
* Users may not directly or indirectly re-sell or 
* re-distribute this model. This model may not 
* be modified, or altered without the consent of Central Semiconductor Corp. 
*
* For more information on this model contact
* Central Semiconductor Corp. at:
* (631) 435-1110 or Engineering@centralsemi.com
* http://www.centralsemi.com
* ==========================================================
******
*SRC=1N3600;1N3600;Diodes;Rectifier;50V 0.20A 4ns CS CS
.MODEL 1N3600 D (
+ IS=4.8570E-9
+ N=1.7941
+ RS=.44308
+ IKF=56.014E-3
+ CJO=966.73E-15
+ M=.1001
+ VJ=9.1502
+ ISR=11.381E-9
+ NR=4.9950
+ BV=50.191
+ IBV=64.663E-3
+ TT=5.7708E-9 )
******

****** 
* Spice Model
* Item: 1N3612
* Date: 8/27/08
* Revision History: Rev A
*==========================================================
* This model was developed by: 
* Central Semiconductor Corp.
* 145 Adams Avenue
* Hauppauge, NY 11788
*
* These models are subject to change without notice.
* Users may not directly or indirectly re-sell or 
* re-distribute this model. This model may not 
* be modified, or altered without the consent of Central Semiconductor Corp. 
*
* For more information on this model contact
* Central Semiconductor Corp. at:
* (631) 435-1110 or Engineering@centralsemi.com
* http://www.centralsemi.com
**==========================================================
******
*SRC=1N3612;1N3612;Diodes;Si;  400V  1.00A  2.00us   Central Semi Central Semi
.MODEL 1N3612 D  ( IS=902p RS=39.1m BV=400 IBV=5.00u
+ CJO=35.9p  M=0.333 N=1.58 TT=2.88u )
******
******
* Spice Model
* Item: 1N4101
* Date: 4/29/14
* Revision History: REV A
*==========================================================
* This model was developed by: 
* Central Semiconductor Corp.
* 145 Adams Avenue
* Hauppauge, NY 11788
*
* These models are subject to change without notice.
* Users may not directly or indirectly re-sell or 
* re-distribute this model. This model may not 
* be modified, or altered without the consent of Central Semiconductor Corp. 
*
* For more information on this model contact
* Central Semiconductor Corp. at:
* (631) 435-1110 or Engineering@centralsemi.com
* http://www.centralsemi.com
*==========================================================
******
*SRC=1N4101;1N4101;Diodes;Zener <=10V;8.20V  0.250W  Central Semi Central Semi
*SYM=HZEN
.SUBCKT 1N4101  1 2
*        Terminals    A   K
D1 1 2 DF
DZ 3 1 DR
VZ 2 3 7.21
.MODEL DF D ( IS=12.6p RS=2.15 N=1.10
+ CJO=159p VJ=0.750 M=0.330 TT=50.1n )
.MODEL DR D ( IS=2.51f RS=46.0 N=1.49 )
.ENDS
******

******
* Spice Model
* Item: 1N4103
* Date: 6/30/15
* Revision History: REV A
*==========================================================
* This model was developed by: 
* Central Semiconductor Corp.
* 145 Adams Avenue
* Hauppauge, NY 11788
*
* These models are subject to change without notice.
* Users may not directly or indirectly re-sell or 
* re-distribute this model. This model may not 
* be modified, or altered without the consent of Central Semiconductor Corp. 
*
* For more information on this model contact
* Central Semiconductor Corp. at:
* (631) 435-1110 or Engineering@centralsemi.com
* http://www.centralsemi.com
*==========================================================
******
*SRC=1N4103;1N4103;Diodes;Zener <=10V;9.10V  0.250W  Central Semi Central Semi
*SYM=HZEN
.SUBCKT 1N4103  1 2
*        Terminals    A   K
D1 1 2 DF
DZ 3 1 DR
VZ 2 3 8.11
.MODEL DF D ( IS=11.3p RS=2.14 N=1.10
+ CJO=34.4p VJ=0.750 M=0.330 TT=50.1n )
.MODEL DR D ( IS=2.26f RS=46.0 N=1.49 )
.ENDS
************
* Spice Model
* Item: 1N4107
* Date: 4/28/14
* Revision History: REV A
*==========================================================
* This model was developed by: 
* Central Semiconductor Corp.
* 145 Adams Avenue
* Hauppauge, NY 11788
*
* These models are subject to change without notice.
* Users may not directly or indirectly re-sell or 
* re-distribute this model. This model may not 
* be modified, or altered without the consent of Central Semiconductor Corp. 
*
* For more information on this model contact
* Central Semiconductor Corp. at:
* (631) 435-1110 or Engineering@centralsemi.com
* http://www.centralsemi.com
*==========================================================
******
*SRC=1N4107;1N4107;Diodes;Zener 10V-50V;13.0V  0.250W  Central Semi Central Semi
*SYM=HZEN
.SUBCKT 1N4107  1 2
*        Terminals    A   K
D1 1 2 DF
DZ 3 1 DR
VZ 2 3 12.0
.MODEL DF D ( IS=7.92p RS=2.09 N=1.10
+ CJO=31.4p VJ=1.00 M=0.330 TT=50.1n )
.MODEL DR D ( IS=1.58f RS=46.0 N=1.49 )
.ENDS
******
******
* Spice Model
* Item: 1N4108
* Date: 1/27/14
* Revision History: REV A
*==========================================================
* This model was developed by: 
* Central Semiconductor Corp.
* 145 Adams Avenue
* Hauppauge, NY 11788
*
* These models are subject to change without notice.
* Users may not directly or indirectly re-sell or 
* re-distribute this model. This model may not 
* be modified, or altered without the consent of Central Semiconductor Corp. 
*
* For more information on this model contact
* Central Semiconductor Corp. at:
* (631) 435-1110 or Engineering@centralsemi.com
* http://www.centralsemi.com
*==========================================================
******
*SRC=1N4108;1N4108;Diodes;Zener 10V-50V;14.0V  0.250W  Central Semi Central Semi
*SYM=HZEN
.SUBCKT 1N4108  1 2
*        Terminals    A   K
D1 1 2 DF
DZ 3 1 DR
VZ 2 3 13.0
.MODEL DF D ( IS=7.36p RS=2.08 N=1.10
+ CJO=31.4p VJ=1.00 M=0.330 TT=50.1n )
.MODEL DR D ( IS=1.47f RS=46.0 N=1.49 )
.ENDS
******
******
* Spice Model
* Item: 1N4110
* Date: 1/27/14
* Revision History: REV A
*==========================================================
* This model was developed by: 
* Central Semiconductor Corp.
* 145 Adams Avenue
* Hauppauge, NY 11788
*
* These models are subject to change without notice.
* Users may not directly or indirectly re-sell or 
* re-distribute this model. This model may not 
* be modified, or altered without the consent of Central Semiconductor Corp. 
*
* For more information on this model contact
* Central Semiconductor Corp. at:
* (631) 435-1110 or Engineering@centralsemi.com
* http://www.centralsemi.com
*==========================================================
******
*SRC=1N4110;1N4110;Diodes;Zener 10V-50V;16.0V  0.250W  Central Semi Central Semi
*SYM=HZEN
.SUBCKT 1N4110  1 2
*        Terminals    A   K
D1 1 2 DF
DZ 3 1 DR
VZ 2 3 15.5
.MODEL DF D ( IS=6.44p RS=2.06 N=1.10
+ CJO=23.9p VJ=1.00 M=0.330 TT=50.1n )
.MODEL DR D ( IS=1.29f RS=23.0 N=0.743 )
.ENDS
******
******
* Spice Model
* Item: 1N4148
* Date: 12/07/11
* Revision History: REV A
*==========================================================
* This model was developed by: 
* Central Semiconductor Corp.
* 145 Adams Avenue
* Hauppauge, NY 11788
*
* These models are subject to change without notice.
* Users may not directly or indirectly re-sell or 
* re-distribute this model. This model may not 
* be modified, or altered without the consent of Central Semiconductor Corp. 
*
* For more information on this model contact
* Central Semiconductor Corp. at:
* (631) 435-1110 or Engineering@centralsemi.com
* http://www.centralsemi.com
*==========================================================
******
*SRC=1N4148;1N4148;Diodes;Si;100V  150mA  4.0ns  Central Semi Central Semi
.MODEL 1N4148 D  ( IS=6.2229E-9
+ N=1.9224
+ RS=.33636
+ IKF=42.843E-3
+ CJO=764.38E-15
+ M=.1001
+ VJ=9.9900
+ ISR=11.526E-9
+ NR=4.9950
+ BV=100.14
+ IBV=.25951
+ TT=2.8854E-9 )
******* Spice Model
* Item: 1N4623
* Date: 7/30/18
* Revision History: A
*==========================================================
* This model was developed by: 
* Central Semiconductor Corp.
* 145 Adams Avenue
* Hauppauge, NY 11788
*
* These models are subject to change without notice.
* Users may not directly or indirectly re-sell or 
* re-distribute this model. This model may not 
* be modified, or altered without the consent of Central Semiconductor Corp. 
*
* For more information on this model contact
* Central Semiconductor Corp. at:
* (631) 435-1110 or Engineering@centralsemi.com
* http://www.centralsemi.com
**==========================================================
.model Dbreak D 
+IS=24.00E-12
+N=1.500
+RS=1E-2
+CJO=92.6E-12
+M=.33000
+VJ=0.750
+ISR=4.7900e-15
+NR=3.0000
+BV=4.3
+IBV=250.00E-6
+TT=9E-9
* Spice Model
* Item: 1N4624 Silicon Zener Diode
* Date: 1/27/2017
* Revision History: A
*==========================================================
* This model was developed by: 
* Central Semiconductor Corp.
* 145 Adams Avenue
* Hauppauge, NY 11788
*
* These models are subject to change without notice.
* Users may not directly or indirectly re-sell or 
* re-distribute this model. This model may not 
* be modified, or altered without the consent of Central Semiconductor Corp. 
*
* For more information on this model contact
* Central Semiconductor Corp. at:
* (631) 435-1110 or Engineering@centralsemi.com
* http://www.centralsemi.com
**==========================================================
*SRC=1N4624;1N4624;Diodes;Zener <=10V;4.70V  0.250W  Central Semiconductor  
*SYM=HZEN
.SUBCKT 1N4624  1 2
*        Terminals    A   K
D1 1 2 DF
DZ 3 1 DR
VZ 2 3 2.47
.MODEL DF D ( IS=21.9p RS=1.73 N=1.10
+ CJO=50.0p VJ=0.750 M=0.330 TT=50.1n )
.MODEL DR D ( IS=4.38f RS=1.24k N=3.00 )
.ENDS
******
* Spice Model
* Item: 1N4688
* Date: 12/12/11
* Revision History: REV A
*==========================================================
* This model was developed by: 
* Central Semiconductor Corp.
* 145 Adams Avenue
* Hauppauge, NY 11788
*
* These models are subject to change without notice.
* Users may not directly or indirectly re-sell or 
* re-distribute this model. This model may not 
* be modified, or altered without the consent of Central Semiconductor Corp. 
*
* For more information on this model contact
* Central Semiconductor Corp. at:
* (631) 435-1110 or Engineering@centralsemi.com
* http://www.centralsemi.com
**==========================================================
******
*SRC=1N4688;1N4688;Diodes;Zener <=10V;4.70V  0.500W  Central Semi Central Semi
*SYM=HZEN
.SUBCKT 1N4688  1 2
*        Terminals    A   K
D1 1 2 DF
DZ 3 1 DR
VZ 2 3 2.73
.MODEL DF D ( IS=43.8p RS=8.86 N=1.10
+ CJO=112p VJ=0.750 M=0.330 TT=50.1n )
.MODEL DR D ( IS=8.77f RS=4.45k N=3.00 )
.ENDS
************
* Spice Model
* Item: 1N4760A
* Date: 12/12/11
* Revision History: REV A
*==========================================================
* This model was developed by: 
* Central Semiconductor Corp.
* 145 Adams Avenue
* Hauppauge, NY 11788
*
* These models are subject to change without notice.
* Users may not directly or indirectly re-sell or 
* re-distribute this model. This model may not 
* be modified, or altered without the consent of Central Semiconductor Corp. 
*
* For more information on this model contact
* Central Semiconductor Corp. at:
* (631) 435-1110 or Engineering@centralsemi.com
* http://www.centralsemi.com
*==========================================================
******
*SRC=1N4760A;1N4760A;Diodes;Zener >50V;68.0V  1.00W  Central Semi Central Semi
*SYM=HZEN
.SUBCKT 1N4760A  1 2
*        Terminals    A   K
D1 1 2 DF
DZ 3 1 DR
VZ 2 3 65.3
.MODEL DF D ( IS=6.06p RS=2.55 N=1.10
+ CJO=176p VJ=1.00 M=0.330 TT=50.1n )
.MODEL DR D ( IS=1.21f RS=129 N=3.00 )
.ENDS
******
* Spice Model
* Item: 1N5283
* Date: 1/08/09
* Revsion History: REV A
*==========================================================
* This model was developed by: 
* Central Semiconductor Corp.
* 145 Adams Avenue
* Hauppauge, NY 11788
*
* These models are subject to change without notice.
* Users may not directly or indirectly re-sell or 
* re-distribute this model. This model may not 
* be modified, or altered without the consent of Central Semiconductor Corp. 
*
* For more information on this model contact
* Central Semiconductor Corp. at:
* (631) 435-1110 or Engineering@centralsemi.com
* http://www.centralsemi.com
**==========================================================
******
*SRC=1N5283;DN5283;Diodes;JFET Regulator;100V .22mA
*SYM=CRDIODE
.SUBCKT DN5283 1     2
*Connections Anode Cathode
JFET 1 2 2 1N5283
.MODEL 1N5283 NJF (VTO=-1.0 BETA=.23M LAMBDA=1.1M RD=50
+ RS=126 IS=1.58F PB=1 FC=.5 CGS=5.57P CGD=3.78P)
.ENDS
******
******
* Spice Model
* Item: 1N5289
* Date: 9/29/15
* Revision History: A
* ==========================================================
* This model was developed by: 
* Central Semiconductor Corp.
* 145 Adams Avenue
* Hauppauge, NY 11788
*
* These models are subject to change without notice.
* Users may not directly or indirectly re-sell or 
* re-distribute this model. This model may not 
* be modified, or altered without the consent of Central Semiconductor Corp. 
*
* For more information on this model contact
* Central Semiconductor Corp. at:
* (631) 435-1110 or Engineering@centralsemi.com
* http://www.centralsemi.com
* ==========================================================
*******
*SRC=1N5289;1N5289;Diodes;JFET Regulator;100V .43mA
*SYM=CRDIODE
.SUBCKT 1N5289 1     2
*Connections    Anode Cathode 
JFET 1 2 2 1N5289J 
.MODEL 1N5289J NJF VTO=-1.23 BETA=.35M LAMBDA=0.1M  
+ IS=100.58F PB=0.8 FC=.5 RS=265 RD=2.5 CGS=1.57P CGD=6.78P
.ENDS
***************
* Spice Model
* Item: 1N5290
* Date: 4/13/09
* Revsion History: REV A
*==========================================================
* This model was developed by: 
* Central Semiconductor Corp.
* 145 Adams Avenue
* Hauppauge, NY 11788
*
* These models are subject to change without notice.
* Users may not directly or indirectly re-sell or 
* re-distribute this model. This model may not 
* be modified, or altered without the consent of Central Semiconductor Corp. 
*
* For more information on this model contact
* Central Semiconductor Corp. at:
* (631) 435-1110 or Engineering@centralsemi.com
* http://www.centralsemi.com
*===========================================================
*
*********
*SRC=1N5290;1N5290;Diodes;JFET Regulator;100V .47mA
*SYM=CRDIODE
.SUBCKT 1N5290 1     2
*Connections    Anode Cathode 
JFET 1 2 2 1N5290J 
.MODEL 1N5290J NJF VTO=-1.23 BETA=.38M LAMBDA=0.1M  
+ IS=100.58F PB=0.8 FC=.5 RS=265 RD=2.5 CGS=1.57P CGD=6.78P
.ENDS
********** Spice Model: 		
* Item: 1N5296
* Date: 07/19/16
* Revsion History:A
*==========================================================
* This model was developed by: 
* Central Semiconductor Corp.
* 145 Adams Avenue
* Hauppauge, NY 11788
*
* These models are subject to change without notice.
* Users may not directly or indirectly re-sell or 
* re-distribute this model. This model may not 
* be modified, or altered without the consent of Central Semiconductor Corp. 
*
* For more information on this model contact
* Central Semiconductor Corp. at:
* (631) 435-1110 or Engineering@centralsemi.com
* http://www.centralsemi.com
**==========================================================
*SYM=CRDIODE
*********
.SUBCKT 1N5296 1     2
*Connections    Anode Cathode 
JFET 1 2 2 1N5296 
.MODEL 1N5296 NJF VTO=-1.35 BETA=.57M LAMBDA=0.1M BETATCE=-.32 
+ IS=100.58F PB=0.8 FC=.5 RS=225 RD=2.5 CGS=1.57P CGD=6.78P
.ENDS
***************
* Spice Model
* Item: 1N5307
* Date: 12/22/15
* Revision History: A
*==========================================================
* This model was developed by: 
* Central Semiconductor Corp.
* 145 Adams Avenue
* Hauppauge, NY 11788
*
* These models are subject to change without notice.
* Users may not directly or indirectly re-sell or 
* re-distribute this model. This model may not 
* be modified, or altered without the consent of Central Semiconductor Corp. 
*
* For more information on this model contact
* Central Semiconductor Corp. at:
* (631) 435-1110 or Engineering@centralsemi.com
* http://www.centralsemi.com
*==========================================================
*********
*SRC=1N5307;1N5307;Diodes;JFET Regulator;100V 2.4mA
*SYM=CRDIODE
.SUBCKT 1N5307 1     2
*Connections    Anode Cathode 
JFET 1 2 2 1N5307
.MODEL 1N5307 NJF VTO=-4.05 BETA=.25M LAMBDA=0.1M 
+ IS=100.58F PB=0.8 FC=.5 RS=398 RD=2.5 CGS=1.57P CGD=6.78P
.ENDS
***************
* Spice Model
* Item: 1N5309
* Date: 12/09/09
* Revision History: A
*==========================================================
* This model was developed by: 
* Central Semiconductor Corp.
* 145 Adams Avenue
* Hauppauge, NY 11788
*
* These models are subject to change without notice.
* Users may not directly or indirectly re-sell or 
* re-distribute this model. This model may not 
* be modified, or altered without the consent of Central Semiconductor Corp. 
*
* For more information on this model contact
* Central Semiconductor Corp. at:
* (631) 435-1110 or Engineering@centralsemi.com
* http://www.centralsemi.com
*==========================================================
*
*SRC=1N5309;1N5309;Diodes;JFET Regulator;100V 3.0mA
*SYM=CRDIODE
.SUBCKT 1N5309 1     2
*Connections    Anode Cathode 
JFET 1 2 2 1N5309J 
.MODEL 1N5309J NJF VTO=-4.05 BETA=.25M LAMBDA=0.1M 
+ IS=100.58F PB=0.8 FC=.5 RS=210 RD=2.5 CGS=1.57P CGD=6.78P
.ENDS
******
* Spice Model
* Item: 1N5313	
* Date: 10/1/2013
* Revision History: A
* ==========================================================
* This model was developed by: 
* Central Semiconductor Corp.
* 145 Adams Avenue
* Hauppauge, NY 11788
*
* These models are subject to change without notice.
* Users may not directly or indirectly re-sell or 
* re-distribute this model. This model may not 
* be modified, or altered without the consent of Central Semiconductor Corp. 
*
* For more information on this model contact
* Central Semiconductor Corp. at:
* (631) 435-1110 or Engineering@centralsemi.com
* http://www.centralsemi.com
* ==========================================================
******
*SRC=1N5313;1N5313;Diodes;JFET Regulator;100V 4.3mA
*SYM=CRDIODE
.SUBCKT 1N5313 1     2
*Connections    Anode Cathode 
JFET 1 2 2 1N5313J 
.MODEL 1N5313J NJF VTO=-5.15 BETA=.232M LAMBDA=0.1M 
+ IS=100.58F PB=.8 FC=.5 RS=165 RD=4 CGS=1.57P CGD=4.78P
.ENDS
******



******
* Spice Model
* Item: 1N5314	
* Date: 1/05/11
* Revision History: A
* ==========================================================
* This model was developed by: 
* Central Semiconductor Corp.
* 145 Adams Avenue
* Hauppauge, NY 11788
*
* These models are subject to change without notice.
* Users may not directly or indirectly re-sell or 
* re-distribute this model. This model may not 
* be modified, or altered without the consent of Central Semiconductor Corp. 
*
* For more information on this model contact
* Central Semiconductor Corp. at:
* (631) 435-1110 or Engineering@centralsemi.com
* http://www.centralsemi.com
* ==========================================================
******
*SRC=1N5314;1N5314;Diodes;JFET Regulator;100V 4.7mA
*SYM=CRDIODE
.SUBCKT 1N5314 1     2
*Connections    Anode Cathode 
JFET 1 2 2 1N5314J 
.MODEL 1N5314J NJF VTO=-5.15 BETA=.245M LAMBDA=0.1M 
+ IS=100.58F PB=.8 FC=.5 RS=165 RD=4 CGS=1.57P CGD=4.78P
.ENDS
************
* Spice Model
* Item: 1N5536B
* Date: 4/5/11
* Revsion History: A
*==========================================================
* This model was developed by: 
* Central Semiconductor Corp.
* 145 Adams Avenue
* Hauppauge, NY 11788
*
* These models are subject to change without notice.
* Users may not directly or indirectly re-sell or 
* re-distribute this model. This model may not 
* be modified, or altered without the consent of Central Semiconductor Corp. 
*
* For more information on this model contact
* Central Semiconductor Corp. at:
* (631) 435-1110 or Engineering@centralsemi.com
* http://www.centralsemi.com
**==========================================================
******
*SRC=1N5536B;1N5536B;Diodes;Zener 10V-50V;16.0V  0.400W  CENTRAL SEMI CENTRAL SEMI
*SYM=HZEN
.SUBCKT 1N5536B  1 2
*        Terminals    A   K
D1 1 2 DF
DZ 3 1 DR
VZ 2 3 13.9
.MODEL DF D ( IS=10.3p RS=1.55 N=1.10
+ CJO=38.7p VJ=1.00 M=0.330 TT=50.1n )
.MODEL DR D ( IS=2.06f RS=23.0 N=2.97 )
.ENDS
******* Spice Model
* Item:1n5550
* Date:10/4/2016
* Revsion History:A
*==========================================================
* This model was developed by: 
* Central Semiconductor Corp.
* 145 Adams Avenue
* Hauppauge, NY 11788
*
* These models are subject to change without notice.
* Users may not directly or indirectly re-sell or 
* re-distribute this model. This model may not 
* be modified, or altered without the consent of Central Semiconductor Corp. 
*
* For more information on this model contact
* Central Semiconductor Corp. at:
* (631) 435-1110 or Engineering@centralsemi.com
* http://www.centralsemi.com
**==========================================================
* PSpice Model Editor - Version 16.6.0
*$
*DEVICE=1n5550 Rectifier 3 Amp 200 Volt
* 1n5550 D model
* updated using Model Editor release 16.6.0 on 10/04/16 at 10:14
* The Model Editor is a PSpice product.
.MODEL 1n5550 D
+ IS=54.469E-18
+ RS=1.0000E-3
+ CJO=199.13E-12
+ M=.1
+ VJ=.75
+ ISR=428.85E-9
+ BV=240.02
+ IBV=107.77E-6
+ TT=4.9326E-6
*$

* Spice Model
* Item:1N5616
* Date:10/4/2016
* Revsion History:A
*==========================================================
* This model was developed by: 
* Central Semiconductor Corp.
* 145 Adams Avenue
* Hauppauge, NY 11788
*
* These models are subject to change without notice.
* Users may not directly or indirectly re-sell or 
* re-distribute this model. This model may not 
* be modified, or altered without the consent of Central Semiconductor Corp. 
*
* For more information on this model contact
* Central Semiconductor Corp. at:
* (631) 435-1110 or Engineering@centralsemi.com
* http://www.centralsemi.com
**==========================================================
* PSpice Model Editor - Version 16.6.0
*$
*DEVICE=1N5616 Recrifier 1 Amp 400 Volt
* 1N5616 D model
* updated using Model Editor release 16.6.0 on 10/04/16 at 10:34
* The Model Editor is a PSpice product.
.MODEL 1N5616 D
+ IS=10.010E-21
+ RS=1.0000E-3
+ CJO=89.986E-12
+ M=.3333
+ VJ=.75
+ ISR=61.630E-9
+ BV=440
+ IBV=58.782E-6
+ TT=4.9326E-6
*$

* Spice Model
* Item: 1N5620 
* Date: 1/27/17
* Revision History: A
*==========================================================
* This model was developed by: 
* Central Semiconductor Corp.
* 145 Adams Avenue
* Hauppauge, NY 11788
*
* These models are subject to change without notice.
* Users may not directly or indirectly re-sell or 
* re-distribute this model. This model may not 
* be modified, or altered without the consent of Central Semiconductor Corp. 
*
* For more information on this model contact
* Central Semiconductor Corp. at:
* (631) 435-1110 or Engineering@centralsemi.com
* http://www.centralsemi.com
**==========================================================
*SRC=1N5620;1N5620;Diodes;Si;800V  1.00A  2.00us  Central Semicoductor  
.MODEL 1N5620 D  ( IS=2.50e+013 RS=14.0 BV=800 IBV=500n
+ CJO=46.4p  M=0.333 N=0.700 TT=2.88u )
* Spice Model
* Item: 1N5622
* Date: 1/27/17
* Revision History: A
*==========================================================
* This model was developed by: 
* Central Semiconductor Corp.
* 145 Adams Avenue
* Hauppauge, NY 11788
*
* These models are subject to change without notice.
* Users may not directly or indirectly re-sell or 
* re-distribute this model. This model may not 
* be modified, or altered without the consent of Central Semiconductor Corp. 
*
* For more information on this model contact
* Central Semiconductor Corp. at:
* (631) 435-1110 or Engineering@centralsemi.com
* http://www.centralsemi.com
**==========================================================
*SRC=1N5622;1N5622;Diodes;Si;1.00kV  1.00A  2.00us  Central Semicoductor  
.MODEL 1N5622 D  ( IS=6.33e+021 RS=17.5 BV=1.00k IBV=500n
+ CJO=46.4p  M=0.333 N=0.700 TT=2.88u )
******
* Spice Model
* Item: 1N914
* Date: 12/07/11
* Revision History: REV A
*==========================================================
* This model was developed by: 
* Central Semiconductor Corp.
* 145 Adams Avenue
* Hauppauge, NY 11788
*
* These models are subject to change without notice.
* Users may not directly or indirectly re-sell or 
* re-distribute this model. This model may not 
* be modified, or altered without the consent of Central Semiconductor Corp. 
*
* For more information on this model contact
* Central Semiconductor Corp. at:
* (631) 435-1110 or Engineering@centralsemi.com
* http://www.centralsemi.com
*==========================================================
******
*SRC=1N914;1N914;Diodes;Si;100V  150mA  4.0ns  Central Semi Central Semi
.MODEL 1N914 D  ( IS=6.2229E-9
+ N=1.9224
+ RS=.33636
+ IKF=42.843E-3
+ CJO=764.38E-15
+ M=.1001
+ VJ=9.9900
+ ISR=11.526E-9
+ NR=4.9950
+ BV=100.14
+ IBV=.25951
+ TT=2.8854E-9 )
************
* Spice Model
* Item: 1SMB5.0A
* Date: 10/22/09
* Revision History: A
*==========================================================
* This model was developed by: 
* Central Semiconductor Corp.
* 145 Adams Avenue
* Hauppauge, NY 11788
*
* These models are subject to change without notice.
* Users may not directly or indirectly re-sell or 
* re-distribute this model. This model may not 
* be modified, or altered without the consent of Central Semiconductor Corp. 
*
* For more information on this model contact
* Central Semiconductor Corp. at:
* (631) 435-1110 or Engineering@centralsemi.com
* http://www.centralsemi.com
*==========================================================
*SRC=1SMB5_0A;1SMB5_0A;Diodes;Si;	5V	26.6A	8us	Central Semi Central Semi
*SYM=HZEN
.SUBCKT 1smb5_0a 7 1
*
*      Model Generated by MODPEX     
*Copyright(c) Symmetry Design Systems
*         All Rights Reserved        
*    UNPUBLISHED LICENSED SOFTWARE   
*   Contains Proprietary Information 
*      Which is The Property of      
*     SYMMETRY OR ITS LICENSORS     
*    modeling services provided by   
* Interface Technologies www.i-t.com 
*
* Model generated on Oct 22, 2009
* MODEL FORMAT: SPICE3
*     anode cathode
*node: 7      1
*    Forward Section
D1 2 1 MDD1
.MODEL MDD1 D IS=1.17809e-12 N=1 XTI=1 RS=0.5 T_ABS=25
+ CJO=6e-09 TT=1e-08
*    Leakage Current
R 1 2 7142.86 MDR
.MODEL MDR R TC1=0 TC2=0
*    Breakdown
RZ 2 3 0.0320026 
D3 4 3 MDD3  
.MODEL MDD3 D IS=2.5e-15 N=0.5 T_ABS=25
EV1 1 4 6 8 1
IBV 0 6 0.001
RBV 6 0 7000 MDRBV
.MODEL MDRBV R TC1=0
D4 8 0 MDD3  
L 7 2 1e-15
IT 0 8 0.01
.ENDS 1smb5_0a
************
* Spice Model
* Item: 1SMC11CA
* Date: 10/27/09
* Revision History: A
*==========================================================
* This model was developed for: 
* Central Semiconductor Corp.
* 145 Adams Avenue
* Hauppauge, NY 11788
*
* These models are subject to change without notice.
* Users may not directly or indirectly re-sell or 
* re-distribute this model. This model may not 
* be modified, or altered without the consent of Central Semiconductor Corp. 
*
* For more information on this model contact
* Central Semiconductor Corp. at:
* (631) 435-1110 or Engineering@centralsemi.com
* http://www.centralsemi.com
*==========================================================
*SRC=1SMC11CA;1SMC11CA;Diodes;Si; 11V	82.4A	8us	Central Semi	Central Semi
*SYM=HZEN
.SUBCKT 1smc11ca 7 1
*
*      Model Generated by MODPEX     
*Copyright(c) Symmetry Design Systems
*         All Rights Reserved        
*    UNPUBLISHED LICENSED SOFTWARE   
*   Contains Proprietary Information 
*      Which is The Property of      
*     SYMMETRY OR ITS LICENSORS      
*    modeling services provided by   
* Interface Technologies www.i-t.com 
*
* Model generated on Oct 27, 2009
* MODEL FORMAT: SPICE3
*     anode cathode
*node: 7      1
*    Leakage Current
R 1 2 2.2e+06 MDR
.MODEL MDR R TC1=0 TC2=0
*    Breakdown pos
RZ 2 3 0.0601191 
D3 4 3 MDD3  
.MODEL MDD3 D IS=2.5e-15 N=0.5 T_ABS=25
EV1 1 4 6 8 1
IBV 0 6 0.001
*    Breakdown neg
RZa 2 3a 0.0601191 
D3a 3a 4a MDD3
EV1a 4a 1 6 8 1
CJO 1 2 2e-09
RBV 6 0 13100 MDRBV