*
*DIODES_INC_SPICE_MODEL
*ORIGIN=DZSL_DPG
*SIMULATOR=PSPICE
*DATE=09/01/2009
*VERSION=1
*
.MODEL 2DD2652  NPN IS=2.66E-13 BF=550 IKF=2.25 VAF=34.6
+ ISE=5.7E-14 NE=1.425 BR=280 IKR=0.9 VAR=12.25 
+ ISC=2.76E-13 NC=1.46 RB=0.22 RE=0.055 RC=0.038 
+ CJC=34.2E-12 MJC=0.298 VJC=0.441 CJE=103.5E-12 
+ MJE=0.357 VJE=0.7042 TF=1.12E-9 TR=2.15E-9
*
*$

*
*DIODES_INC_SPICE_MODEL
*ORIGIN=DZSL_DPG
*SIMULATOR=PSPICE
*DATE=08/01/2009
*VERSION=1
*
.MODEL 2DD2661  NPN IS=5.92E-13 BF=500 IKF=5 VAF=34.6
+ ISE=1.27E-13 NE=1.425 NR=1 BR=280 IKR=2 VAR=12.25 
+ ISC=6.138E-13 NC=1.46 RB=0.1 RE=0.025 RC=0.017 
+ CJC=76E-12 MJC=0.2981 VJC=0.4414 CJE=230E-12 
+ MJE=0.3569 VJE=0.7042 TF=1.12E-9 TR=2.15E-9
*
*$

*
*DIODES_INC_SPICE_MODEL
*ORIGIN=DZSL_DPG
*SIMULATOR=PSPICE
*DATE=08/01/2009
*VERSION=1
*
.MODEL 2DD2678  NPN IS=5.92E-13 BF=500 IKF=5 VAF=34.6
+ ISE=1.27E-13 NE=1.425 NR=1 BR=280 IKR=2 VAR=12.25 
+ ISC=6.138E-13 NC=1.46 RB=0.1 RE=0.025 RC=0.017 
+ CJC=76E-12 MJC=0.2981 VJC=0.4414 CJE=230E-12 
+ MJE=0.3569 VJE=0.7042 TF=1.12E-9 TR=2.15E-9
*
*$

*
*DIODES_INC_SPICE_MODEL
*ORIGIN=DZSL_DPG_GM
*SIMULATOR=PSPICE
*DATE=16/9/2009
*VERSION=1
*
.MODEL DSS4220V NPN IS=7.5E-13 BF=700 NF=1.005 VAF=61 IKF=3.3
+ ISE=8.5E-14 NE=1.35 BR=130 NR=1 VAR=11.3 IKR=1.4 ISC=6E-13 NC=1.38
+ RE=0.061 RB=0.5 RC=0.010 CJE=143E-12 VJE=0.80 MJE=0.39 CJC=39E-12
+ VJC=0.40 MJC=0.26 TF=0.48E-9 TR=2.7E-9 RCO=0.42 GAMMA=2E-9
+ QUASIMOD=1 XTB=1.35 TRE1=0.004 TRB1=0.004 TRC1=0.004
*
*$

*
*DIODES_INC_SPICE_MODEL
*ORIGIN=DZSL_DPG_GM
*SIMULATOR=PSPICE
*DATE=10FEB2011
*VERSION=1
*PIN_ORDER         
* 1=E2    8=C2
* 2=B2    7=C2
* 3=E1    6=C1
* 4=B1    5=C1
*
.SUBCKT ZDT6718 1 2 3 4 5 6 7 8
Q1 11 4 3 Nmod
Q2 12 2 1 Pmod
RP1 11 5 0.001
RP2 11 6 0.001
RP3 12 7 0.001
RP4 12 8 0.001
*
.MODEL Nmod NPN IS=5.611E-13 NF=1.0022 BF=480 IKF=4.6 VAF=51
+ ISE=1.73E-13 NE=1.4 NR=1.0002 BR=200 IKR=3 VAR=25 
+ ISC=7.3152E-13 NC=1.47 RB=0.032 RE=0.027 RC=0.025 
+ CJC=59E-12 MJC=0.2651 VJC=0.3051 CJE=216E-12 
+ TF=0.95E-9 TR=2.25E-9
.MODEL Pmod PNP IS=6.8E-13  BF=480 IKF=2 VAF=23 
+ ISE=0.8E-13 NE=1.5567 NR=1.00 BR=70 IKR=0.4 
+ VAR=7 ISC=7.5E-14 NC=1.19 RB=0.085 RE=0.04
+ RC=0.045 CJC=70.02E-12 MJC=0.4685 VJC=0.7714 
+ CJE=203.6E-12 MJE=0.5029 VJE=0.9403 TF=0.71E-9 
+ TR=23.7E-9
.ENDS
*
*$

*
*DIODES_INC_SPICE_MODEL
*ORIGIN=DZSL_DPG_GM
*SIMULATOR=PSPICE
*DATE=10FEB2011
*VERSION=1
*PIN_ORDER         
* 1=C1    6=E1
* 2=B1    5=B2
* 3=C2    4=E2
*
.SUBCKT ZXTC2061E6 1 2 3 4 5 6
Q1 1 2 6 Nmod
Q2 3 5 4 Pmod
*
.MODEL Nmod NPN IS=9E-13 BF=990 NF=1 VAF=25 IKF=3.8 ISE=8E-14 NE=1.35
+ BR=410 NR=1 VAR=8 IKR=1.25 ISC=8e-14 NC=1.35 RE=0.0117 RB=0.1 RC=0.0081
+ CJE=168E-12 VJE=0.7 MJE=0.38 CJC=61E-12 VJC=0.52 MJC=0.31 TF=0.5E-9 TR=1.7e-9
+ XTB=1.4
.MODEL Pmod PNP IS=5.5E-13 NF=1 BF=650 VAF=20 ISE=1.9E-13
+ IKF=2.5 NE=1.53 BR=72 VAR=4.1 ISC=7E-14 NC=1.2 IKR=0.25 RC=0.010
+ RB=0.15 RE=0.006 QUASIMOD=1 RCO=0.7 GAMMA=1.7E-9 CJC=57E-12 MJC=0.35
+ VJC=0.53 CJE=168E-12 MJE=0.54 VJE=0.95 TF=0.42E-9 TR=8.4E-9 TRC1=0.005
+ TRB1=0.005 TRE1=0.005 XTB=1.4 
.ENDS
*
*$

*
*DIODES_INC_SPICE_MODEL
*ORIGIN=DZSL_DPG_GM
*SIMULATOR=PSPICE
*DATE=10FEB2011
*VERSION=1
*PIN_ORDER         
* 1=C1    6=E1
* 2=B1    5=B2
* 3=C2    4=E2
*
.SUBCKT ZXTC2062E6 1 2 3 4 5 6
Q1 1 2 6 Nmod
Q2 3 5 4 Pmod
*
.MODEL Nmod NPN IS=4E-13 BF=550 NF=1 VAF=25 IKF=4.5 ISE=1E-13 NE=1.4
+ BR=120 NR=1 VAR=8 IKR=1.7 ISC=4e-13 NC=1.4 RE=0.010 RB=0.1 RC=0.0085
+ CJE=190E-12 VJE=0.67 MJE=0.345 CJC=47E-12 VJC=0.525 MJC=0.34 TF=0.53E-9 TR=8.6e-9 
+ RCO=0.29 GAMMA=0.8E-9 QUASIMOD=1 XTB=1.4
.MODEL Pmod PNP IS=4E-13 NF=1 BF=510 IKF=3.5 VAF=23 ISE=10E-14 NE=1.49
+ NR=1 BR=97 IKR=1 VAR=4.5 ISC=7.5e-14 NC=1.2 RE=0.0136 RB=0.12 RC=0.0094 RCO=0.9
+ GAMMA=2.5E-9 CJC=60E-12 MJC=0.33 VJC=0.51 CJE=183E-12 MJE=0.5 VJE=0.9 TF=3.4E-10
+ TR=4.5e-9 XTB=1.5 TRE1=.002 TRB1=.002 TRC1=.002 QUASIMOD=1 
.ENDS
*
*$

*
*DIODES_INC_SPICE_MODEL
*ORIGIN=DZSL_DPG_GM
*SIMULATOR=PSPICE
*DATE=24JAN2011
*VERSION=2
*PIN_ORDER         
*1=B1
*2=E1
*3=B2
*4=E2
*5=C2
*6=C2
*7=C1
*8=C1
*
.SUBCKT ZXTC6717MC 1 2 3 4 5 6 7 8
Q1 10 1 2 Nmod
Q2 20 3 4 Pmod
RP1 10 7 0.001
RP2 10 8 0.001
RP3 20 5 0.001
RP4 20 6 0.001
*
.MODEL Nmod NPN IS=5.92E-13 BF=500 IKF=5 VAF=34.6
+ ISE=1.27E-13 NE=1.425 NR=1 BR=280 IKR=2 VAR=12.25 
+ ISC=6.138E-13 NC=1.46 RB=0.1 RE=0.025 RC=0.017 
+ CJC=76E-12 MJC=0.2981 VJC=0.4414 CJE=230E-12 
+ MJE=0.3569 VJE=0.7042 TF=1.12E-9 TR=2.15E-9
.MODEL Pmod PNP IS=5.5E-13  BF=500 IKF=3 VAF=14.93 
+ ISE=1.75E-13 NE=1.5 NR=1.00 BR=280 IKR=0.3 
+ VAR=5.64 ISC=6.01E-13 NC=1.34 RB=0.3 RE=0.03
+ RC=0.025 CJC=116.9E-12 MJC=0.3456 VJC=0.4576 
+ CJE=223.6E-12 MJE=0.4803 VJE=0.9091 TF=1.2E-9 
+ TR=2E-9
.ENDS
*
*$

*
*DIODES_INC_SPICE_MODEL
*ORIGIN=DZSL_DPG_GM
*SIMULATOR=PSPICE
*DATE=24JAN2011
*VERSION=1
*PIN_ORDER         
*1=B1
*2=E1
*3=B2
*4=E2
*5=C2
*6=C2
*7=C1
*8=C1
*
.SUBCKT ZXTC6718MC 1 2 3 4 5 6 7 8
Q1 10 1 2 Nmod
Q2 20 3 4 Pmod
RP1 10 7 0.001
RP2 10 8 0.001
RP3 20 5 0.001
RP4 20 6 0.001
*
.MODEL Nmod NPN IS=5.611E-13 NF=1.0022 BF=480 IKF=4.6 VAF=51
+ ISE=1.73E-13 NE=1.4 NR=1.0002 BR=200 IKR=3 VAR=25 
+ ISC=7.3152E-13 NC=1.47 RB=0.032 RE=0.027 RC=0.025 
+ CJC=59E-12 MJC=0.2651 VJC=0.3051 CJE=216E-12 
+ TF=0.95E-9 TR=2.25E-9
.MODEL Pmod PNP IS=6.8E-13  BF=480 IKF=2 VAF=23 
+ ISE=0.8E-13 NE=1.5567 NR=1.00 BR=70 IKR=0.4 
+ VAR=7 ISC=7.5E-14 NC=1.19 RB=0.085 RE=0.04
+ RC=0.045 CJC=70.02E-12 MJC=0.4685 VJC=0.7714 
+ CJE=203.6E-12 MJE=0.5029 VJE=0.9403 TF=0.71E-9 
+ TR=23.7E-9
.ENDS
*
*$

*
*DIODES_INC_SPICE_MODEL
*ORIGIN=DZSL_DPG_GM
*SIMULATOR=PSPICE
*DATE=27/04/2010
*VERSION=1
*PIN_ORDER         C1, B1, C2, E2, B2, E1.
*
.SUBCKT ZXTD6717E6 1 2 3 4 5 6
*
Q1 1 2 6 Nmod1
Q2 3 5 4 Pmod1
*
.MODEL Nmod1 NPN IS=5.92E-13 BF=500 IKF=5 VAF=34.6
+ ISE=1.27E-13 NE=1.425 NR=1 BR=280 IKR=2 VAR=12.25 
+ ISC=6.138E-13 NC=1.46 RB=0.1 RE=0.025 RC=0.017 
+ CJC=76E-12 MJC=0.2981 VJC=0.4414 CJE=230E-12 
+ MJE=0.3569 VJE=0.7042 TF=1.12E-9 TR=2.15E-9
*
.MODEL Pmod1 PNP IS=5.5E-13  BF=500 IKF=3 VAF=14.93 
+ ISE=1.75E-13 NE=1.5 NR=1.00 BR=280 IKR=0.3 
+ VAR=5.64 ISC=6.01E-13 NC=1.34 RB=0.3 RE=0.03
+ RC=0.025 CJC=116.9E-12 MJC=0.3456 VJC=0.4576 
+ CJE=223.6E-12 MJE=0.4803 VJE=0.9091 TF=1.2E-9 
+ TR=2E-9
*
.ENDS
*
*$

*
*DIODES_INC_SPICE_MODEL
*ORIGIN=DZSL_DPG_GM
*SIMULATOR=PSPICE
*DATE=24JAN2011
*VERSION=1
*PIN_ORDER         
*1=B1
*2=E1
*3=B2
*4=E2
*5=C2
*6=C2
*7=C1
*8=C1
*
.SUBCKT ZXTD617MC 1 2 3 4 5 6 7 8
Q1 10 1 2 Nmod
Q2 20 3 4 Nmod
RP1 10 7 0.001
RP2 10 8 0.001
RP3 20 5 0.001
RP4 20 6 0.001
*
.MODEL Nmod NPN IS=5.92E-13 BF=500 IKF=5 VAF=34.6
+ ISE=1.27E-13 NE=1.425 NR=1 BR=280 IKR=2 VAR=12.25 
+ ISC=6.138E-13 NC=1.46 RB=0.1 RE=0.025 RC=0.017 
+ CJC=76E-12 MJC=0.2981 VJC=0.4414 CJE=230E-12 
+ MJE=0.3569 VJE=0.7042 TF=1.12E-9 TR=2.15E-9
.ENDS
*
*$

*
*DIODES_INC_SPICE_MODEL
*ORIGIN=DZSL_DPG_GM
*SIMULATOR=PSPICE
*DATE=24JAN2011
*VERSION=1
*PIN_ORDER         
*1=B1
*2=E1
*3=B2
*4=E2
*5=C2
*6=C2
*7=C1
*8=C1
*
.SUBCKT ZXTD618MC 1 2 3 4 5 6 7 8
Q1 10 1 2 Nmod
Q2 20 3 4 Nmod
RP1 10 7 0.001
RP2 10 8 0.001
RP3 20 5 0.001
RP4 20 6 0.001
*
.MODEL Nmod NPN IS=5.611E-13 NF=1.0022 BF=480 IKF=4.6 VAF=51
+ ISE=1.73E-13 NE=1.4 NR=1.0002 BR=200 IKR=3 VAR=25 
+ ISC=7.3152E-13 NC=1.47 RB=0.032 RE=0.027 RC=0.025 
+ CJC=59E-12 MJC=0.2651 VJC=0.3051 CJE=216E-12 
+ TF=0.95E-9 TR=2.25E-9
.ENDS
*
*$

*
*DIODES_INC_SPICE_MODEL
*ORIGIN=DZSL_DPG_GM
*SIMULATOR=PSPICE
*DATE=24JAN2011
*VERSION=1
*PIN_ORDER         
*1=B1
*2=E1
*3=B2
*4=E2
*5=C2
*6=C2
*7=C1
*8=C1
*
.SUBCKT ZXTD717MC 1 2 3 4 5 6 7 8
Q1 10 1 2 Pmod
Q2 20 3 4 Pmod
RP1 10 7 0.001
RP2 10 8 0.001
RP3 20 5 0.001
RP4 20 6 0.001
*
.MODEL Pmod PNP IS=5.5E-13  BF=500 IKF=3 VAF=14.93 
+ ISE=1.75E-13 NE=1.5 NR=1.00 BR=280 IKR=0.3 
+ VAR=5.64 ISC=6.01E-13 NC=1.34 RB=0.3 RE=0.03
+ RC=0.025 CJC=116.9E-12 MJC=0.3456 VJC=0.4576 
+ CJE=223.6E-12 MJE=0.4803 VJE=0.9091 TF=1.2E-9 
+ TR=2E-9
.ENDS
*
*$

*
*DIODES_INC_SPICE_MODEL
*ORIGIN=DZSL_DPG_GM
*SIMULATOR=PSPICE
*DATE=24JAN2011
*VERSION=1
*PIN_ORDER         
*1=B1
*2=E1
*3=B2
*4=E2
*5=C2
*6=C2
*7=C1
*8=C1
*
.SUBCKT ZXTD718MC 1 2 3 4 5 6 7 8
Q1 10 1 2 Pmod
Q2 20 3 4 Pmod
RP1 10 7 0.001
RP2 10 8 0.001
RP3 20 5 0.001
RP4 20 6 0.001
*
.MODEL Pmod PNP IS=6.8E-13  BF=480 IKF=2 VAF=23 
+ ISE=0.8E-13 NE=1.5567 NR=1.00 BR=70 IKR=0.4 
+ VAR=7 ISC=7.5E-14 NC=1.19 RB=0.085 RE=0.04
+ RC=0.045 CJC=70.02E-12 MJC=0.4685 VJC=0.7714 
+ CJE=203.6E-12 MJE=0.5029 VJE=0.9403 TF=0.71E-9 
+ TR=23.7E-9
.ENDS
*
*$

*
*DIODES_INC_SPICE_MODEL
*ORIGIN=DZSL_DPG_GM
*SIMULATOR=PSPICE
*DATE=19/01/2011
*VERSION=1
*
.MODEL ZXTN26020DMF NPN IS=7.5E-13 BF=700 NF=1.005 VAF=61 IKF=3.3
+ ISE=8.5E-14 NE=1.35 BR=130 NR=1 VAR=11.3 IKR=1.4 ISC=6E-13 NC=1.38
+ RE=0.061 RB=0.5 RC=0.010 CJE=143E-12 VJE=0.80 MJE=0.39 CJC=39E-12
+ VJC=0.40 MJC=0.26 TF=0.48E-9 TR=2.7E-9 RCO=0.42 GAMMA=2E-9
+ QUASIMOD=1 XTB=1.35 TRE1=0.004 TRB1=0.004 TRC1=0.004
*
*$

*
*DIODES_INC_SPICE_MODEL
*ORIGIN=DZSL_DPG_GM
*SIMULATOR=PSPICE
*DATE=27JAN2011
*VERSION=1
*
.MODEL ZXTN617MA NPN IS=5.92E-13 BF=500 IKF=5 VAF=34.6
+ ISE=1.27E-13 NE=1.425 NR=1 BR=280 IKR=2 VAR=12.25 
+ ISC=6.138E-13 NC=1.46 RB=0.1 RE=0.025 RC=0.017 
+ CJC=76E-12 MJC=0.2981 VJC=0.4414 CJE=230E-12 
+ MJE=0.3569 VJE=0.7042 TF=1.12E-9 TR=2.15E-9
*
*$

*
*DIODES_INC_SPICE_MODEL
*ORIGIN=DZSL_DPG_GM
*SIMULATOR=PSPICE
*DATE=27JAN2011
*VERSION=1
*
.MODEL ZXTN618MA NPN IS=5.611E-13 NF=1.0022 BF=480 IKF=4.6 VAF=51
+ ISE=1.73E-13 NE=1.4 NR=1.0002 BR=200 IKR=3 VAR=25 
+ ISC=7.3152E-13 NC=1.47 RB=0.032 RE=0.027 RC=0.025 
+ CJC=59E-12 MJC=0.2651 VJC=0.3051 CJE=216E-12 
+ TF=0.95E-9 TR=2.25E-9
*
*$

*
*DIODES_INC_SPICE_MODEL
*ORIGIN=DZSL_DPG
*SIMULATOR=PSPICE
*DATE=21/01/2011
*VERSION=1
*
.MODEL ZXTP26020DMF PNP IS=5.5e-13 NF=1.005 ISE=1.2e-13 NE=1.55 BF=590
+ VAF=21 IKF=2 ISC=1.8e-13 NC=1.39 BR=52 VAR=5.7 IKR=0.6 RE=0.067
+ RB=0.33 RC=0.012 CJE=147e-12 VJE=0.88 MJE=0.48 CJC=51e-12 VJC=0.51
+ MJC=0.33 TF=4.5e-10 TR=5.6e-9 QUASIMOD=1 RCO=0.66 GAMMA=1.3e-9
+ XTB=1.5 TRE1=0.004 TRB1=0.003 TRC1=0.004
*
*$

*
*DIODES_INC_SPICE_MODEL
*ORIGIN=DZSL_DPG_GM
*SIMULATOR=PSPICE
*DATE=27JAN2011
*VERSION=1
*
.MODEL ZXTP717MA PNP IS=5.5E-13  BF=500 IKF=3 VAF=14.93 
+ ISE=1.75E-13 NE=1.5 NR=1.00 BR=280 IKR=0.3 
+ VAR=5.64 ISC=6.01E-13 NC=1.34 RB=0.3 RE=0.03
+ RC=0.025 CJC=116.9E-12 MJC=0.3456 VJC=0.4576 
+ CJE=223.6E-12 MJE=0.4803 VJE=0.9091 TF=1.2E-9 
+ TR=2E-9
*
*$

*
*DIODES_INC_SPICE_MODEL
*ORIGIN=DZSL_DPG_GM
*SIMULATOR=PSPICE
*DATE=27JAN2011
*VERSION=1
*
.MODEL ZXTP718MA PNP IS=6.8E-13  BF=480 IKF=2 VAF=23 
+ ISE=0.8E-13 NE=1.5567 NR=1.00 BR=70 IKR=0.4 
+ VAR=7 ISC=7.5E-14 NC=1.19 RB=0.085 RE=0.04
+ RC=0.045 CJC=70.02E-12 MJC=0.4685 VJC=0.7714 
+ CJE=203.6E-12 MJE=0.5029 VJE=0.9403 TF=0.71E-9 
+ TR=23.7E-9
*
*$

*
*DIODES_INC_SPICE_MODEL
*ORIGIN=DZSL_DPG
*SIMULATOR=PSPICE
*DATE=08/01/2009
*VERSION=1
*
.MODEL 2DA1797 PNP IS=2.715E-13 BF=170 VAF=70 NF=1.004 IKF=2.75 ISE=1E-13
+ NE=1.535 BR=23 VAR=40 NR=1.005 IKR=.55 ISC=5.15E-14 NC=1.13 RB=.07
+ RE=.065 RC=.085 CJE=360E-12 TF=.94E-9 CJC=90E-12 TR=60E-9 VJC=.705
+ MJC=.46
*
*$

*SRC=2DA1774R;DI_2DA1774R;BJTs PNP; Si;  50.0V  0.150A  250MHz   Diodes Inc. Bipolar Transistor
.MODEL 2DA1774R  PNP (IS=15.2f NF=1.00 BF=523 VAF=127
+ IKF=54.7m ISE=3.88p NE=2.00 BR=4.00 NR=1.00
+ VAR=24.0 IKR=0.135 RE=0.710 RB=2.84 RC=0.284
+ XTB=1.5 CJE=42.6p VJE=1.10 MJE=0.500 CJC=13.7p VJC=0.300
+ MJC=0.300 TF=453p TR=96.4n EG=1.12 )

*SRC=2DB1184Q;DI_2DB1184Q;BJTs PNP; Si;  50.0V  3.00A  110MHz    
.MODEL 2DB1184Q  PNP (IS=8.38f NF=1.00 BF=197 VAF=127
+ IKF=3.34 ISE=488f NE=2.00 BR=4.00 NR=1.00
+ VAR=20.0 IKR=5.25 RE=33.2m RB=0.133 RC=13.3m
+ XTB=1.5 CJE=405p VJE=1.10 MJE=0.500 CJC=75.1p VJC=0.300
+ MJC=0.300 TF=1.27n TR=230n EG=1.12 )

*
*DIODES_INC_SPICE_MODEL
*ORIGIN=DZSL_DPG
*SIMULATOR=PSPICE
*DATE=09/01/2009
*VERSION=1
*
.MODEL 2DB1714 PNP IS=4E-13 NF=1 BF=470 IKF=3.5 VAF=23 ISE=10E-14
+ NE=1.49 NR=1 BR=97 IKR=1 VAR=4.5 ISC=7.5e-14 NC=1.2 RE=0.014 RB=0.12
+ RC=0.0111 RCO=0.88 GAMMA=0.6E-9 CJC=58E-12 MJC=0.41 VJC=0.62 CJE=183E-12
+ MJE=0.5 VJE=0.95 TF=3.9E-10 TR=7.8e-9 XTB=1.5 TRE1=0.003 TRB1=0.003
+ TRC1=0.003 QUASIMOD=1
*
*$

*
*DIODES_INC_SPICE_MODEL
*ORIGIN=DZSL_DPG
*SIMULATOR=PSPICE
*DATE=08/01/2009
*VERSION=1
*
.MODEL 2DB1694 PNP IS=2.817E-13 BF=550 IKF=0.63 VAF=28.4 
+ ISE=4.76E-14 NE=1.492 BR=42 IKR=0.293 VAR=10.21 ISC=2.7E-14 
+ NC=1.124 RB=0.173 RE=0.171 RC=0.089 CJC=28.5E-12 MJC=0.506 
+ VJC=0.843 CJE=92E-12 MJE=0.524 VJE=1.021 TF=0.8E-9 TR=20E-9
*
*$

*SRC=2DC2412R;DI_2DC2412R;BJTs NPN; Si;  50.0V  0.150A  200MHz   Diodes Inc. Bipolar Transistor
.MODEL 2DC2412R  NPN (IS=15.5f NF=1.00 BF=524 VAF=127
+ IKF=54.7m ISE=3.90p NE=2.00 BR=4.00 NR=1.00
+ VAR=28.0 IKR=0.135 RE=0.290 RB=1.16 RC=0.116
+ XTB=1.5 CJE=22.7p VJE=1.10 MJE=0.500 CJC=7.34p VJC=0.300
+ MJC=0.300 TF=698p TR=121n EG=1.12 )

*SRC=2DC4617QLP;DI_2DC4617QLP;BJTs NPN; Si;  50.0V  0.100A  200MHz    
.MODEL 2DC4617QLP  NPN (IS=1.21f NF=1.00 BF=202 VAF=127
+ IKF=98.0m ISE=5.55f NE=2.00 BR=4.00 NR=1.00
+ VAR=20.0 IKR=0.150 RE=0.575 RB=2.30 RC=0.230
+ XTB=1.5 CJE=15.6p VJE=1.10 MJE=0.500 CJC=6.12p VJC=0.300
+ MJC=0.300 TF=765p TR=126n EG=1.12 )

*SRC=2DC4617R;DI_2DC4617R;BJTs NPN; Si;  50.0V  0.150A  200MHz   Diodes Inc. Bipolar Transistor
.MODEL 2DC4617R  NPN (IS=15.5f NF=1.00 BF=524 VAF=127
+ IKF=54.7m ISE=3.90p NE=2.00 BR=4.00 NR=1.00
+ VAR=28.0 IKR=0.135 RE=0.290 RB=1.16 RC=0.116
+ XTB=1.5 CJE=22.7p VJE=1.10 MJE=0.500 CJC=7.34p VJC=0.300
+ MJC=0.300 TF=698p TR=121n EG=1.12 )

*
*DIODES_INC_SPICE_MODEL
*ORIGIN=DZSL_DPG
*SIMULATOR=PSPICE
*DATE=09/01/2009
*VERSION=1
*
.MODEL 2DC4672 NPN IS=2.218E-13 NF=.9956 BF=230 IKF=2 VAF=100 ISE=2.9E-14
+ NE=1.35 NR=.995 BR=56 IKR=1 VAR=30 ISC=2.971E-13 NC=1.321 RB=.04
+ RE=.075 RC=.069 CJC=51E-12 MJC=.42 VJC=.595 CJE=318E-12 TF=.77E-9
+ TR=27E-9
*
*$

*SRC=2DD1766Q;DI_2DD1766Q;BJTs NPN; Si;  32.0V  2.00A  250MHz    -
.MODEL 2DD1766Q  NPN (IS=6.65f NF=1.00 BF=201 VAF=102
+ IKF=2.97 ISE=13.0f NE=2.00 BR=4.00 NR=1.00
+ VAR=20.0 IKR=4.50 RE=68.7m RB=0.275 RC=27.5m
+ XTB=1.5 CJE=218p VJE=1.10 MJE=0.500 CJC=41.4p VJC=0.300
+ MJC=0.300 TF=538p TR=101n EG=1.12 )

*
*DIODES_INC_SPICE_MODEL
*ORIGIN=DZSL_DPG
*SIMULATOR=PSPICE
*DATE=09/01/2009
*VERSION=1
*
.MODEL 2DD2679 NPN IS=5.1E-13 BF=480 NF=1 VAF=99 IKF=3.3 ISE=1.2E-13
+ NE=1.49 BR=65 NR=1 VAR=24 IKR=1 ISC=1.1E-13 NC=1.31 RE=0.0115 RB=0.15 RC=0.012
+ CJE=192E-12 VJE=0.75 MJE=0.38 CJC=35E-12 VJC=0.47 MJC=0.34 TF=0.62E-9 TR=20E-9
+ RCO=1.9 GAMMA=1E-8 QUASIMOD=1 XTB=1.35 TRE1=0.005 TRB1=0.005 TRC1=0.005
*
*$

*
*DIODES_INC_SPICE_MODEL
*ORIGIN=DZSL_DPG
*SIMULATOR=PSPICE
*DATE=08/01/2009
*VERSION=1
*
.MODEL 2DD2656 NPN IS=2.61E-13 BF=550 IKF=0.99 VAF=84
+ ISE=7.17E-14 NE=1.4148 BR=110 IKR=0.63 VAR=51 ISC=2.25E-12 
+ NC=1.45 RB=0.093 RE=0.073 RC=0.083 CJC=18E-12 MJC=0.371 
+ VJC=0.435 CJE=97.7E-12 TF=0.78E-9 TR=9E-9
*
*$

*SRC=BC847BLP4;DI_BC847BLP4;BJTs NPN; Si;  45.0V  0.100A  450MHz    
.MODEL BC847BLP4  NPN (IS=2.31f NF=1.00 BF=425 VAF=121
+ IKF=58.6m ISE=3.67f NE=2.00 BR=4.00 NR=1.00
+ VAR=24.0 IKR=90.0m RE=0.700 RB=2.80 RC=0.280
+ XTB=1.5 CJE=14.9p VJE=1.10 MJE=0.500 CJC=6.07p VJC=0.300
+ MJC=0.300 TF=294p TR=53.9n EG=1.12 )

*SRC=BC857BLP;DI_BC857BLP;BJTs PNP; Si;  45.0V  0.100A  490MHz   Diodes Inc. BJT
.MODEL BC857BLP  PNP (IS=3.72f NF=1.00 BF=650 VAF=121
+ IKF=54.7m ISE=1.54p NE=2.00 BR=4.00 NR=1.00
+ VAR=20.0 IKR=0.135 RE=1.06 RB=4.26 RC=0.426
+ XTB=1.5 CJE=26.8p VJE=1.10 MJE=0.500 CJC=8.67p VJC=0.300
+ MJC=0.300 TF=221p TR=49.1n EG=1.12 )

*SRC=BC847BLD;DI_BC847BLD;BJTs NPN; Si;  45.0V  0.200A  347MHz    -
.MODEL BC847BLD  NPN (IS=5.61f NF=1.00 BF=300 VAF=121
+ IKF=70.3m ISE=286f NE=2.00 BR=4.00 NR=1.00
+ VAR=24.0 IKR=0.120 RE=0.637 RB=2.55 RC=0.255
+ XTB=1.5 CJE=15.8p VJE=1.10 MJE=0.500 CJC=4.47p VJC=0.300
+ MJC=0.300 TF=379p TR=71.0n EG=1.12 )

*SRC=BC858AW;DI_BC858AW;BJTs PNP; Si;  30.0V  0.100A  250MHz   Diodes Inc. BJTs
.MODEL BC858AW  PNP (IS=10.2f NF=1.00 BF=342 VAF=98.6
+ IKF=72.9m ISE=5.59p NE=2.00 BR=4.00 NR=1.00
+ VAR=20.0 IKR=0.180 RE=0.715 RB=2.86 RC=0.286
+ XTB=1.5 CJE=13.3p VJE=1.10 MJE=0.500 CJC=7.80p VJC=0.300
+ MJC=0.300 TF=581p TR=97.8n EG=1.12 )

*SRC=BC847BVC;DI_BC847BVC;BJTs NPN; Si;  45.0V  0.100A  300MHz   Diodes, Inc. transistor
.MODEL BC847BVC  NPN (IS=3.75f NF=1.00 BF=1.61k VAF=121
+ IKF=8.79m ISE=8.38p NE=2.00 BR=4.00 NR=1.00
+ VAR=24.0 IKR=90.0m RE=0.765 RB=3.06 RC=0.306
+ XTB=1.5 CJE=13.3p VJE=1.10 MJE=0.500 CJC=8.67p VJC=0.300
+ MJC=0.300 TF=520p TR=78.9n EG=1.12 )

*SRC=BC847CDLP;DI_BC847CDLP;BJTs NPN; Si;  45.0V  0.100A  300MHz    Diodes Inc
.MODEL BC847CDLP  NPN (IS=10.2f NF=1.00 BF=1.09k VAF=121
+ IKF=36.4m ISE=1.24p NE=2.00 BR=4.00 NR=1.00
+ VAR=24.0 IKR=90.0m RE=0.490 RB=1.96 RC=0.196
+ XTB=1.5 CJE=13.4p VJE=1.10 MJE=0.500 CJC=5.92p VJC=0.300
+ MJC=0.300 TF=481p TR=79.2n EG=1.12 )

*SRC=BC847BLP;DI_BC847BLP;BJTs NPN; Si;  45.0V  0.100A  280MHz    -
.MODEL BC847BLP  NPN (IS=5.62f NF=1.00 BF=450 VAF=121
+ IKF=70.3m ISE=191f NE=2.00 BR=4.00 NR=1.00
+ VAR=24.0 IKR=0.120 RE=0.700 RB=2.80 RC=0.280
+ XTB=1.5 CJE=14.6p VJE=1.10 MJE=0.500 CJC=6.93p VJC=0.300
+ MJC=0.300 TF=541p TR=86.5n EG=1.12 )

*SRC=BC857BLP4;DI_BC857BLP4;BJTs PNP; Si;  45.0V  0.100A  220MHz    
.MODEL BC857BLP4  PNP (IS=2.24f NF=1.00 BF=333 VAF=121
+ IKF=98.0m ISE=4.59f NE=2.00 BR=4.00 NR=1.00
+ VAR=20.0 IKR=0.150 RE=1.14 RB=4.58 RC=0.458
+ XTB=1.5 CJE=14.8p VJE=1.10 MJE=0.500 CJC=8.09p VJC=0.300
+ MJC=0.300 TF=659p TR=111n EG=1.12 )

*
*DIODES_INC_SPICE_MODEL
*ORIGIN=DZSL_DPG
*SIMULATOR=PSPICE
*DATE=16/04/2009
*VERSION=1
*
.MODEL DJT4030P PNP IS=5.5e-13 NF=1 ISE=1.3e-13 NE=1.5 BF=360
+ VAF=36 IKF=8 ISC=1.1e-13 NC=1.28 BR=55 VAR=6.6 IKR=1.4 RE=9e-3
+ RB=300e-3 RC=9e-3  CJE=380e-12 VJE=0.7 MJE=0.4 CJC=111e-12
+ VJC=0.4 MJC=0.35 TF=8.5e-10 TR=3.7e-9 XTB=1.6 QUASIMOD=1
+ RCO=0.24 GAMMA=6e-10
*
*$

*SRC=DNLS350E;DI_DNLS350E;BJTs NPN; Si;  50.0V  3.00A  220MHz    
.MODEL DNLS350E  NPN (IS=11.7f NF=1.00 BF=388 VAF=127
+ IKF=2.97 ISE=8.95f NE=2.00 BR=4.00 NR=1.00
+ VAR=20.0 IKR=4.50 RE=23.8m RB=95.3m RC=9.53m
+ XTB=1.5 CJE=341p VJE=1.10 MJE=0.500 CJC=45.4p VJC=0.300
+ MJC=0.300 TF=574p TR=111n EG=1.12 )

*SRC=DNLS350Y;DI_DNLS350Y;BJTs NPN; Si;  50.0V  3.00A  220MHz    
.MODEL DNLS350Y  NPN (IS=11.7f NF=1.00 BF=388 VAF=127
+ IKF=2.97 ISE=8.95f NE=2.00 BR=4.00 NR=1.00
+ VAR=20.0 IKR=4.50 RE=23.8m RB=95.3m RC=9.53m
+ XTB=1.5 CJE=341p VJE=1.10 MJE=0.500 CJC=45.4p VJC=0.300
+ MJC=0.300 TF=574p TR=111n EG=1.12 )

*SRC=DPLS350Y;DI_DPLS350Y;BJTs PNP; Si;  50.0V  3.00A  200MHz    
.MODEL DPLS350Y  PNP (IS=9.40f NF=1.00 BF=382 VAF=127
+ IKF=2.48 ISE=8.14f NE=2.00 BR=4.00 NR=1.00
+ VAR=24.0 IKR=3.75 RE=25.8m RB=0.103 RC=10.3m
+ XTB=1.5 CJE=337p VJE=1.10 MJE=0.500 CJC=76.7p VJC=0.300
+ MJC=0.300 TF=645p TR=122n EG=1.12 )

*SRC=DPLS350E;DI_DPLS350E;BJTs PNP; Si;  50.0V  3.00A  200MHz    
.MODEL DPLS350E  PNP (IS=9.40f NF=1.00 BF=382 VAF=127
+ IKF=2.48 ISE=8.14f NE=2.00 BR=4.00 NR=1.00
+ VAR=24.0 IKR=3.75 RE=25.8m RB=0.103 RC=10.3m
+ XTB=1.5 CJE=337p VJE=1.10 MJE=0.500 CJC=76.7p VJC=0.300
+ MJC=0.300 TF=645p TR=122n EG=1.12 )

*
*DIODES_INC_SPICE_MODEL
*ORIGIN=DZSL_DPG
*SIMULATOR=PSPICE
*DATE=06/01/09
*VERSION=1
*
.MODEL DSS4540X NPN IS=1.35E-12 NF=1.0 BF=600 IKF=5.0 VAF=120
+ ISE=0.6E-13 NE=1.25 NR=1.0 BR=150 IKR=3 VAR=15
+ ISC=1.0E-10 NC=1.7 RB=0.1 RE=0.023 RC=0.010 
+ CJC=90.36E-12 CJE=547.5E-12 MJC=0.385 MJE=0.357
+ VJC=0.5 VJE=0.741 TF=600E-12 TR=8E-9
*
*$

*
*DIODES_INC_SPICE_MODEL
*ORIGIN=DZSL_DPG_GM
*SIMULATOR=PSPICE
*DATE=13OCT2010
*VERSION=1
*
.MODEL DSS30101L NPN IS=6.8E-13 BF=700 NF=1.005 VAF=100 IKF=2.8
+ ISE=6E-14 NE=1.4 BR=42 NR=1 VAR=14 IKR=1 ISC=4.8E-13 NC=1.44
+ RE=0.02 RB=1 RC=0.032 CJE=141E-12 VJE=0.84 MJE=0.4 CJC=31E-12
+ VJC=0.55 MJC=0.4 TF=0.59E-9 TR=6E-9 RCO=1.7 GAMMA=3E-8
+ QUASIMOD=1 XTB=1.35 TRE1=0.0045 TRB1=0.0035 TRC1=0.0045
*
*$

*
*DIODES_INC_SPICE_MODEL
*ORIGIN=DZSL_DPG_GM
*SIMULATOR=PSPICE
*DATE=13OCT2010
*VERSION=1
*
.MODEL DSS4240T NPN IS=6.8E-13 BF=700 NF=1.005 VAF=100 IKF=2.8
+ ISE=6E-14 NE=1.4 BR=42 NR=1 VAR=14 IKR=1 ISC=4.8E-13 NC=1.44
+ RE=0.02 RB=1 RC=0.032 CJE=141E-12 VJE=0.84 MJE=0.4 CJC=31E-12
+ VJC=0.55 MJC=0.4 TF=0.59E-9 TR=6E-9 RCO=1.7 GAMMA=3E-8
+ QUASIMOD=1 XTB=1.35 TRE1=0.0045 TRB1=0.0035 TRC1=0.0045
*
*$

*
*DIODES_INC_SPICE_MODEL
*ORIGIN=DZSL_DPG
*SIMULATOR=PSPICE
*DATE=21/04/2009
*VERSION=1
*
.MODEL DSS5140V PNP IS=3e-13 NF=1 ISE=8e-14 NE=1.47 BF=430
+ VAF=27 IKF=2.35 ISC=1e-13 NC=1.25 BR=29 VAR=9.3 IKR=0.5 RE=55e-3
+ RB=500e-3 RC=12e-3 CJE=158e-12 VJE=1.0 MJE=0.55 CJC=51e-12
+ VJC=0.7 MJC=0.45 TF=6e-10 TR=13.6e-9 XTB=1.6 QUASIMOD=1
+ RCO=0.85 GAMMA=6e-10
*
*$

*
*DIODES_INC_SPICE_MODEL
*ORIGIN=DZSL_DPG
*SIMULATOR=PSPICE
*DATE=06/01/2009
*VERSION=1
*
.MODEL DSS5240T PNP IS=4E-13 NF=1 BF=470 IKF=3.5 VAF=23 
+ ISE=10E-14 NE=1.49 NR=1 BR=97 IKR=1 VAR=4.5 ISC=7.5e-14 NC=1.2 
+ RE=0.014 RB=0.12 RC=0.0111 RCO=0.88 GAMMA=0.6E-9 CJC=58E-12 
+ MJC=0.41 VJC=0.62 CJE=183E-12 MJE=0.5 VJE=0.95 TF=3.9E-10 
+ TR=7.8e-9 XTB=1.5 TRE1=0.003 TRB1=0.003 TRC1=0.003 QUASIMOD=1
*
*$

*
*DIODES_INC_SPICE_MODEL
*ORIGIN=DZSL_DPG_GM
*SIMULATOR=PSPICE
*DATE=13OCT2010
*VERSION=2
*
.MODEL DSS4140U NPN IS=6.8E-13 BF=700 NF=1.005 VAF=100 IKF=2.8
+ ISE=6E-14 NE=1.4 BR=42 NR=1 VAR=14 IKR=1 ISC=4.8E-13 NC=1.44
+ RE=0.02 RB=1 RC=0.032 CJE=141E-12 VJE=0.84 MJE=0.4 CJC=31E-12
+ VJC=0.55 MJC=0.4 TF=0.59E-9 TR=6E-9 RCO=1.7 GAMMA=3E-8
+ QUASIMOD=1 XTB=1.35 TRE1=0.0045 TRB1=0.0035 TRC1=0.0045
*
*$

*
*DIODES_INC_SPICE_MODEL
*ORIGIN=DZSL_DPG_GM
*SIMULATOR=PSPICE
*DATE=13OCT2010
*VERSION=2
*
.MODEL DSS4140V NPN IS=6.8E-13 BF=700 NF=1.005 VAF=100 IKF=2.8
+ ISE=6E-14 NE=1.4 BR=42 NR=1 VAR=14 IKR=1 ISC=4.8E-13 NC=1.44
+ RE=0.02 RB=1 RC=0.032 CJE=141E-12 VJE=0.84 MJE=0.4 CJC=31E-12
+ VJC=0.55 MJC=0.4 TF=0.59E-9 TR=6E-9 RCO=1.7 GAMMA=3E-8
+ QUASIMOD=1 XTB=1.35 TRE1=0.0045 TRB1=0.0035 TRC1=0.0045
*
*$

*
*DIODES_INC_SPICE_MODEL
*ORIGIN=DZSL_DPG_GM
*SIMULATOR=PSPICE
*DATE=13OCT2010
*VERSION=2
*
.MODEL DSS4240V NPN IS=6.8E-13 BF=700 NF=1.005 VAF=100 IKF=2.8
+ ISE=6E-14 NE=1.4 BR=42 NR=1 VAR=14 IKR=1 ISC=4.8E-13 NC=1.44
+ RE=0.02 RB=1 RC=0.032 CJE=141E-12 VJE=0.84 MJE=0.4 CJC=31E-12
+ VJC=0.55 MJC=0.4 TF=0.59E-9 TR=6E-9 RCO=1.7 GAMMA=3E-8
+ QUASIMOD=1 XTB=1.35 TRE1=0.0045 TRB1=0.0035 TRC1=0.0045
*
*$

*
*DIODES_INC_SPICE_MODEL
*ORIGIN=DZSL_DPG
*SIMULATOR=PSPICE
*DATE=21/04/2009
*VERSION=1
*
.MODEL DSS5140U PNP IS=3e-13 NF=1 ISE=8e-14 NE=1.47 BF=430
+ VAF=27 IKF=2.35 ISC=1e-13 NC=1.25 BR=29 VAR=9.3 IKR=0.5 RE=55e-3
+ RB=500e-3 RC=12e-3 CJE=158e-12 VJE=1.0 MJE=0.55 CJC=51e-12
+ VJC=0.7 MJC=0.45 TF=6e-10 TR=13.6e-9 XTB=1.6 QUASIMOD=1
+ RCO=0.85 GAMMA=6e-10
*
*$

*SRC=DXT2222A;DI_DXT2222A;BJTs NPN; Si;  40.0V  0.600A  410MHz    -
.MODEL DXT2222A  NPN (IS=9.69f NF=1.00 BF=272 VAF=114
+ IKF=0.493 ISE=11.7f NE=2.00 BR=4.00 NR=1.00
+ VAR=24.0 IKR=0.750 RE=0.253 RB=1.01 RC=0.101
+ XTB=1.5 CJE=29.0p VJE=1.10 MJE=0.500 CJC=14.7p VJC=0.300
+ MJC=0.300 TF=362p TR=60.3n EG=1.12 )

*SRC=DXT3904;DI_DXT3904;BJTs NPN; Si;  40.0V  0.200A  420MHz    -
.MODEL DXT3904  NPN (IS=3.52e-016 NF=1.00 BF=233 VAF=114
+ IKF=39.0m ISE=2.61f NE=2.00 BR=4.00 NR=1.00
+ VAR=24.0 IKR=60.0m RE=0.655 RB=2.62 RC=0.262
+ XTB=1.5 CJE=6.25p VJE=1.10 MJE=0.500 CJC=4.78p VJC=0.300
+ MJC=0.300 TF=368p TR=59.4n EG=1.12 )

*SRC=DXT3906;DI_DXT3906;BJTs PNP; Si;  40.0V  0.200A  510MHz    -
.MODEL DXT3906  PNP (IS=2.87e-016 NF=1.00 BF=160 VAF=114
+ IKF=88.5m ISE=120f NE=2.00 BR=4.00 NR=1.00
+ VAR=20.0 IKR=0.150 RE=0.705 RB=2.82 RC=0.282
+ XTB=1.5 CJE=8.98p VJE=1.10 MJE=0.500 CJC=6.15p VJC=0.300
+ MJC=0.300 TF=293p TR=50.4n EG=1.12 )

*SRC=DZT2222A;DI_DZT2222A;BJTs NPN; Si;  40.0V  0.600A  410MHz    -
.MODEL DZT2222A  NPN (IS=9.69f NF=1.00 BF=272 VAF=114
+ IKF=0.493 ISE=11.7f NE=2.00 BR=4.00 NR=1.00
+ VAR=24.0 IKR=0.750 RE=0.253 RB=1.01 RC=0.101
+ XTB=1.5 CJE=29.0p VJE=1.10 MJE=0.500 CJC=14.7p VJC=0.300
+ MJC=0.300 TF=362p TR=60.3n EG=1.12 )

*SRC=LBN150B01;DI_LBN150B01_NPN;BJTs NPN; Si; 40.0V 0.200A 347MHz Diodes Inc. BJTs - Complementary
.MODEL LBN150B01_NPN NPN (IS=5.81e-016 NF=1.00 BF=410 VAF=114
+ IKF=0.304 ISE=2.28p NE=2.00 BR=4.00 NR=1.00
+ VAR=24.0 IKR=0.750 RE=0.707 RB=2.83 RC=0.283
+ XTB=1.5 CJE=9.67p VJE=1.10 MJE=0.500 CJC=6.86p VJC=0.300
+ MJC=0.300 TF=450p TR=70.2n EG=1.12 )

*SRC=LBN150B01;DI_LBN150B01_PNP;BJTs PNP; Si; 40.0V 0.200A 257MHz Diodes Inc. BJTs - Complementary
.MODEL LBN150B01_PNP PNP (IS=7.21e-016 NF=1.00 BF=410 VAF=114
+ IKF=48.6m ISE=1.01p NE=2.00 BR=4.00 NR=1.00
+ VAR=20.0 IKR=0.120 RE=1.21 RB=4.83 RC=0.483
+ XTB=1.5 CJE=10.9p VJE=1.10 MJE=0.500 CJC=7.57p VJC=0.300
+ MJC=0.300 TF=558p TR=84.1n EG=1.12 )

*SRC=MMBT2222AT;DI_MMBT2222AT;BJTs NPN; Si;  40.0V  0.600A  300MHz   Diodes Inc. BJTs
.MODEL MMBT2222AT  NPN (IS=60.4f NF=1.00 BF=301 VAF=114
+ IKF=66.8m ISE=14.8p NE=2.00 BR=4.00 NR=1.00
+ VAR=24.0 IKR=0.165 RE=0.261 RB=1.04 RC=0.104
+ XTB=1.5 CJE=36.2p VJE=1.10 MJE=0.500 CJC=23.1p VJC=0.300 MJC=0.300 
+ TF=491p TR=82.1n EG=1.12 )

*SRC=MMBT3904T;DI_MMBT3904T;BJTs NPN; Si;  40.0V  0.200A  347MHz   Diodes Inc. BJTs
.MODEL MMBT3904T  NPN (IS=20.2f NF=1.00 BF=410 VAF=114
+ IKF=30.4m ISE=4.25p NE=2.00 BR=4.00 NR=1.00
+ VAR=24.0 IKR=75.0m RE=0.707 RB=2.83 RC=0.283
+ XTB=1.5 CJE=8.92p VJE=1.10 MJE=0.500 CJC=7.10p VJC=0.300 MJC=0.300 
+ TF=383p TR=69.9n EG=1.12 )

*SRC=MMBT4401;DI_MMBT4401;BJTs NPN; Si;  40.0V  0.600A  200MHz   Diodes, Inc. transistor
.MODEL MMBT4401  NPN (IS=60.9f NF=1.00 BF=410 VAF=114
+ IKF=0.364 ISE=25.5p NE=2.00 BR=4.00 NR=1.00
+ VAR=24.0 IKR=0.900 RE=0.713 RB=2.85 RC=0.285
+ XTB=1.5 CJE=36.2p VJE=1.10 MJE=0.500 CJC=15.4p VJC=0.300
+ MJC=0.300 TF=717p TR=121n EG=1.12 )

*SRC=MMBT3906T;DI_MMBT3906T;BJTs PNP; Si;  40.0V  0.200A  257MHz   Didoes Inc. BJTs
.MODEL MMBT3906T  PNP (IS=7.21e-016 NF=1.00 BF=410 VAF=114
+ IKF=60.7m ISE=1.13p NE=2.00 BR=4.00 NR=1.00
+ VAR=20.0 IKR=0.150 RE=1.21 RB=4.83 RC=0.483
+ XTB=1.5 CJE=10.9p VJE=1.10 MJE=0.500 CJC=6.63p VJC=0.300 MJC=0.300 
+ TF=571p TR=84.1n EG=1.12 )

*SRC=MMBT4401T;DI_MMBT4401T;BJTs NPN; Si;  40.0V  0.600A  275MHz   Diodes Inc. BJTs
.MODEL MMBT4401T  NPN (IS=1.27p NF=1.00 BF=410 VAF=114
+ IKF=60.7m ISE=47.7p NE=2.00 BR=4.00 NR=1.00
+ VAR=24.0 IKR=0.150 RE=0.261 RB=1.04 RC=0.104
+ XTB=1.5 CJE=27.7p VJE=1.10 MJE=0.500 CJC=14.2p VJC=0.300 MJC=0.300 
+ TF=533p TR=84.1n EG=1.12 )

*SRC=MMBT4403;DI_MMBT4403;BJTs PNP; Si;  40.0V  0.600A  300MHz   Diodes Inc. Transistor 
.MODEL MMBT4403  PNP (IS=26.9f NF=1.00 BF=274 VAF=114 
+ IKF=0.304 ISE=23.2p NE=2.00 BR=4.00 NR=1.00 
+ VAR=20.0 IKR=0.750 RE=0.263 RB=1.05 RC=0.105 
+ XTB=1.5 CJE=36.2p VJE=1.10 MJE=0.500 CJC=24.6p VJC=0.300 
+ MJC=0.300 TF=500p TR=82.4n EG=1.12 )

*SRC=MMBT4403T;DI_MMBT4403T;BJTs PNP; Si;  40.0V  0.600A  200MHz   Diodes Inc. BJTs
.MODEL MMBT4403T  PNP (IS=60.4f NF=1.00 BF=410 VAF=114
+ IKF=0.304 ISE=23.2p NE=2.00 BR=4.00 NR=1.00
+ VAR=20.0 IKR=0.750 RE=0.261 RB=1.04 RC=0.104
+ XTB=1.5 CJE=27.7p VJE=1.10 MJE=0.500 CJC=18.5p VJC=0.300
+ MJC=0.300 TF=667p TR=84.1n EG=1.12 )

*SRC=MMBTH24;DI_MMBTH24;BJTs NPN; Si;  40.0V  50.0mA  1.00kMHz   Diodes Inc. Transistor 
.MODEL MMBTH24  NPN (IS=1.26e-016 NF=1.00 BF=95.8 VAF=114 
+ IKF=24.3m ISE=1.28p NE=2.00 BR=4.00 NR=1.00 
+ VAR=16.0 IKR=60.0m RE=1.51 RB=6.05 RC=0.605 
+ XTB=1.5 CJE=6.27p VJE=1.10 MJE=0.500 CJC=2.02p VJC=0.300 
+ MJC=0.300 TF=130p TR=27.4n EG=1.12 )

*SRC=MMDT3906;DI_MMDT3906;BJTs PNP; Si;  40.0V  0.200A  257MHz   Diodes Inc. BJTs - Single device of dual
.MODEL MMDT3906  PNP (IS=7.21e-016 NF=1.00 BF=410 VAF=114
+ IKF=48.6m ISE=1.01p NE=2.00 BR=4.00 NR=1.00
+ VAR=20.0 IKR=0.120 RE=1.21 RB=4.83 RC=0.483
+ XTB=1.5 CJE=10.9p VJE=1.10 MJE=0.500 CJC=7.57p VJC=0.300 MJC=0.300 
+ TF=558p TR=84.1n EG=1.12 )

*SRC=MMDT3906VC;DI_MMDT3906VC;BJTs PNP; Si;  40.0V  0.200A  257MHz   Diodes, Inc. PNP
.MODEL MMDT3906VC  PNP (IS=20.3f NF=1.00 BF=274 VAF=114
+ IKF=36.4m ISE=6.99p NE=2.00 BR=4.00 NR=1.00
+ VAR=20.0 IKR=90.0m RE=1.01 RB=4.03 RC=0.403
+ XTB=1.5 CJE=12.1p VJE=1.10 MJE=0.500 CJC=10.7p VJC=0.300
+ MJC=0.300 TF=531p TR=85.6n EG=1.12 )

*SRC=MMDT4403;DI_MMDT4403;BJTs PNP; Si;  40.0V  0.600A  275MHz   Diodes Inc. BJTs - Single device of dual
.MODEL MMDT4403  PNP (IS=61.0f NF=1.00 BF=410 VAF=114
+ IKF=0.340 ISE=24.7p NE=2.00 BR=4.00 NR=1.00
+ VAR=20.0 IKR=0.840 RE=0.269 RB=1.08 RC=0.108
+ XTB=1.5 CJE=27.6p VJE=1.10 MJE=0.500 CJC=18.5p VJC=0.300 MJC=0.300 
+ TF=516p TR=84.1n EG=1.12 )

*SRC=MMDT2222A;DI_MMDT2222A;BJTs NPN; Si;  40.0V  0.600A  300MHz   Diodes Inc. BJTs - Single device of dual 
.MODEL MMDT2222A  NPN (IS=61.0f NF=1.00 BF=410 VAF=114 
+ IKF=0.121 ISE=14.8p NE=2.00 BR=4.00 NR=1.00 
+ VAR=24.0 IKR=0.300 RE=0.269 RB=1.08 RC=0.108 
+ XTB=1.5 CJE=27.7p VJE=1.10 MJE=0.500 CJC=15.3p VJC=0.300 
+ MJC=0.300 TF=496p TR=81.1n EG=1.12 )

*SRC=MMDT2222V;DI_MMDT2222V;BJTs NPN; Si; 40.0V 0.600A 300MHz Diodes Inc. BJTs - Single element of dual 
.MODEL MMDT2222V NPN (IS=61.0f NF=1.00 BF=410 VAF=114 
+ IKF=0.121 ISE=14.8p NE=2.00 BR=4.00 NR=1.00 
+ VAR=24.0 IKR=0.300 RE=0.269 RB=1.08 RC=0.108 
+ XTB=1.5 CJE=27.7p VJE=1.10 MJE=0.500 CJC=15.3p VJC=0.300 
+ MJC=0.300 TF=496p TR=81.1n EG=1.12 )

*SRC=MMDT3904VC;DI_MMDT3904VC;BJTs NPN; Si;  40.0V  0.200A  347MHz   Diodes Inc. NPN Transistor
.MODEL MMDT3904VC  NPN (IS=20.3f NF=1.00 BF=274 VAF=114
+ IKF=36.4m ISE=6.99p NE=2.00 BR=4.00 NR=1.00
+ VAR=24.0 IKR=90.0m RE=0.657 RB=2.63 RC=0.263
+ XTB=1.5 CJE=8.29p VJE=1.10 MJE=0.500 CJC=7.10p VJC=0.300
+ MJC=0.300 TF=426p TR=71.3n EG=1.12 )

*SRC=MMDT4401;DI_MMDT4401;BJTs NPN; Si;  40.0V  0.600A  275MHz   Diodes Inc. BJTs - Single device of dual
.MODEL MMDT4401  NPN (IS=60.7f NF=1.00 BF=410 VAF=114
+ IKF=0.219 ISE=19.7p NE=2.00 BR=4.00 NR=1.00
+ VAR=24.0 IKR=0.540 RE=85.8m RB=0.343 RC=34.3m
+ XTB=1.5 CJE=36.2p VJE=1.10 MJE=0.500 CJC=15.4p VJC=0.300 MJC=0.300 
+ TF=539p TR=84.1n EG=1.12 )

*SRC=MMDT3946LP4;MMDT3946LP4_NPN;BJTs NPN; Si;  40.0V  0.200A  375MHz    
.MODEL MMDT3946LP4_NPN  NPN (IS=7.48e-016 NF=1.00 BF=141 VAF=114
+ IKF=0.118 ISE=6.24f NE=2.00 BR=4.00 NR=1.00
+ VAR=24.0 IKR=0.180 RE=0.477 RB=1.91 RC=0.191
+ XTB=1.5 CJE=11.1p VJE=1.10 MJE=0.500 CJC=4.97p VJC=0.300
+ MJC=0.300 TF=401p TR=69.4n EG=1.12 )

*SRC=MMDT3946LP4;MMDT3946LP4_PNP;BJTs PNP; Si;  40.0V  0.200A  490MHz    
.MODEL MMDT3946LP4_PNP  PNP (IS=5.58e-016 NF=1.00 BF=162 VAF=114
+ IKF=98.0m ISE=4.72f NE=2.00 BR=4.00 NR=1.00
+ VAR=20.0 IKR=0.150 RE=0.865 RB=3.46 RC=0.346