*****
* DIODE.LIB
* spectrum
* andy
* Generated by the Micro-Cap Model program Version 11.0.1.7.
*****

*** Low Leakage Diode
.MODEL 1N456 D (BV=30 CJO=4.505p IBV=100p IS=29.054p M=385.099m N=1.425
+ RL=125.018MEG RS=910.713m TT=5u VJ=700m)

*** Low Leakage Diode
.MODEL 1N456A D (BV=30 CJO=4.505p IBV=100p IS=29.054p M=385.099m N=1.425
+ RL=125.018MEG RS=910.713m TT=5u VJ=700m)

*** Low Leakage Diode
.MODEL 1N457 D (BV=70 CJO=4.505p IBV=100p IS=19.191p M=385.099m N=1.388
+ RL=125.012MEG RS=980.164m TT=5u VJ=700m)

*** Low Leakage Diode
.MODEL 1N457A D (BV=70 CJO=4.505p IBV=100p IS=19.191p M=385.099m N=1.388
+ RL=125.018MEG RS=980.164m TT=5u VJ=700m)

*** Low Leakage Diode
.MODEL 1N458 D (BV=150 CJO=4.505p IBV=100p IS=29.055p M=385.099m N=1.425
+ RL=125.018MEG RS=910.706m TT=5u VJ=700m)

*** Low Leakage Diode
.MODEL 1N458A D (BV=150 CJO=4.505p IBV=100p IS=29.056p M=385.099m N=1.425
+ RL=125.018MEG RS=910.702m TT=5u VJ=700m)

*** Low Leakage Diode
.MODEL 1N459 D (BV=200 CJO=4.505p IBV=100p IS=29.058p M=385.099m N=1.425
+ RL=125.018MEG RS=910.692m TT=5u VJ=700m)

*** Low Leakage Diode
.MODEL 1N459A D (BV=200 CJO=4.505p IBV=100p IS=29.058p M=385.099m N=1.425
+ RL=125.018MEG RS=910.692m TT=5u VJ=700m)

*** Low Leakage Diode
.MODEL 1N461A D (BV=30 CJO=4.505p IBV=100p IS=29.057p M=385.099m N=1.425
+ RL=125.018MEG RS=910.697m TT=5u VJ=700m)

*** Low Leakage Diode
.MODEL 1N462A D (BV=70 CJO=4.505p IBV=100p IS=29.058p M=385.099m N=1.425
+ RL=125.018MEG RS=910.692m TT=5u VJ=700m)

*** Low Leakage Diode
.MODEL 1N463A D (BV=200 CJO=4.505p IBV=100p IS=29.058p M=385.099m N=1.425
+ RL=125.018MEG RS=910.69m TT=5u VJ=700m)

*** Low Leakage Diode
.MODEL 1N482B D (BV=40 CJO=4.505p IBV=100p IS=29.058p M=385.099m N=1.425
+ RL=125.018MEG RS=910.692m TT=5u VJ=700m)

*** Low Leakage Diode
.MODEL 1N483B D (BV=80 CJO=4.505p IBV=100p IS=29.056p M=385.099m N=1.425
+ RL=125.018MEG RS=910.7m TT=5u VJ=700m)

*** Low Leakage Diode
.MODEL 1N484B D (BV=150 CJO=4.505p IBV=100p IS=29.057p M=385.099m N=1.425
+ RL=125.018MEG RS=910.697m TT=5u VJ=700m)

*** Low Leakage Diode
.MODEL 1N485B D (BV=200 CJO=4.505p IBV=100p IS=29.058p M=385.099m N=1.425
+ RL=125.018MEG RS=910.694m TT=5u VJ=700m)

*** High Voltage Diode
.MODEL 1N625 D (BV=30 CJO=1.731p IBV=100p IS=4.78n M=816.138m N=1.776 RL=1.916G
+ RS=869.75m TT=1.443u VJ=15)

*** High Voltage Diode
.MODEL 1N626 D (BV=50 CJO=1.731p IBV=100p IS=4.78n M=816.138m N=1.776 RL=1.916G
+ RS=869.743m TT=1.443u VJ=15)

*** High Voltage Diode
.MODEL 1N627 D (BV=100 CJO=1.731p IBV=100p IS=4.78n M=816.138m N=1.776
+ RL=1.916G RS=869.733m TT=1.443u VJ=15)

*** High Voltage Diodes
.MODEL 1N628 D (BV=150 CJO=1.56p IBV=100p IS=3.843n M=300m N=1.961 RL=17.291G
+ RS=337.629m TT=1.443u VJ=4.653)

*** High Voltage Diodes
.MODEL 1N629 D (BV=200 CJO=1.56p IBV=100p IS=3.843n M=300m N=1.961 RL=17.291G
+ RS=337.629m TT=1.443u VJ=4.653)

*** High Voltage Diodes
.MODEL 1N658 D (BV=120 CJO=1.56p IBV=100p IS=3.843n M=300m N=1.961 RL=17.291G
+ RS=337.629m TT=432.809n VJ=4.653)

*** High Voltage Diode
.MODEL 1N659 D (BV=60 CJO=1.731p IBV=100p IS=4.78n M=816.138m N=1.776 RL=1.916G
+ RS=869.733m TT=432.809n VJ=15)

*** High Voltage Diodes
.MODEL 1N660 D (BV=120 CJO=1.56p IBV=100p IS=3.843n M=300m N=1.961 RL=17.291G
+ RS=337.629m TT=432.809n VJ=4.653)

*** High Voltage Diodes
.MODEL 1N661 D (BV=240 CJO=1.56p IBV=100p IS=3.843n M=300m N=1.961 RL=17.291G
+ RS=337.629m TT=432.809n VJ=4.653)

*** General Purpose
.MODEL 1N914 D (BV=100 CJO=1.584p IBV=100p IS=7n M=300m N=1.812 RL=3.896G
+ RS=1.81 TT=11.542n VJ=12.628)

*** High Voltage Diode
.MODEL 1N914A D (BV=100 CJO=1.731p IBV=100p IS=4.78n M=816.138m N=1.776
+ RL=1.236G RS=869.752m TT=11.542n VJ=15)

*** High Voltage Diode
.MODEL 1N914B D (BV=100 CJO=1.731p IBV=100p IS=4.78n M=816.138m N=1.776
+ RL=1.236G RS=869.746m TT=11.542n VJ=15)

*** High Voltage Diode
.MODEL 1N916 D (BV=100 CJO=1.731p IBV=100p IS=4.78n M=816.138m N=1.776
+ RL=1.916G RS=869.748m TT=8.953n VJ=15)

*** High Voltage Diode
.MODEL 1N916A D (BV=100 CJO=1.731p IBV=100p IS=4.78n M=816.138m N=1.776
+ RL=1.916G RS=869.747m TT=8.953n VJ=15)

*** High Voltage Diode
.MODEL 1N916B D (BV=100 CJO=1.731p IBV=100p IS=4.78n M=816.138m N=1.776
+ RL=1.916G RS=869.745m TT=8.953n VJ=15)

*** Medium current silicon rectifier
.MODEL 1N3491 D (BV=50 CJO=1.664n IBV=100p IS=9.132p M=1.023 N=1.233 RL=50K
+ RS=4.22m TT=6.035u VJ=700m)

*** Medium current silicon rectifier
.MODEL 1N3492 D (BV=100 CJO=1.664n IBV=100p IS=9.126p M=1.023 N=1.233 RL=100K
+ RS=4.22m TT=6.035u VJ=700m)

*** Medium current silicon rectifier
.MODEL 1N3493 D (BV=200 CJO=1.664n IBV=100p IS=9.128p M=1.023 N=1.233 RL=200K
+ RS=4.22m TT=6.035u VJ=700m)

*** Medium current silicon rectifier
.MODEL 1N3494 D (BV=300 CJO=1.664n IBV=100p IS=9.13p M=1.023 N=1.233 RL=300K
+ RS=4.22m TT=6.035u VJ=700m)

*** Medium current silicon rectifier
.MODEL 1N3495 D (BV=400 CJO=1.664n IBV=100p IS=9.128p M=1.023 N=1.233 RL=400K
+ RS=4.22m TT=6.035u VJ=700m)

*** Generic Diode
.MODEL 1N3600 D (BV=75 CJO=914.447f IBV=100p IS=4.556n M=1.296 N=1.845
+ RL=1.592G RS=790.82m TT=5.771n VJ=100)

*** Fast Recovery Power Rectifier
.MODEL 1N3879 D (BV=50 CJO=107.82p IBV=100p IS=4.642f M=313.66m N=1.256
+ RL=6.045MEG RS=12.029m TT=369.946n VJ=1.27)

*** Fast Recovery Power Rectifier
.MODEL 1N3880 D (BV=100 CJO=107.82p IBV=100p IS=.003f M=313.66m N=1.028
+ RL=1.667MEG RS=12.57m TT=369.946n VJ=1.27)

*** Fast Recovery Power Rectifier
.MODEL 1N3881 D (BV=200 CJO=107.82p IBV=100p IS=.002f M=313.66m N=1.02
+ RL=1.667MEG RS=12.585m TT=369.946n VJ=1.27)

*** Fast Recovery Power Rectifier
.MODEL 1N3882 D (BV=300 CJO=107.82p IBV=100p IS=.017f M=313.66m N=1.073
+ RL=1.667MEG RS=12.466m TT=369.946n VJ=1.27)

*** Fast Recovery Power Rectifier
.MODEL 1N3883 D (BV=400 CJO=107.82p IBV=100p IS=.054f M=313.66m N=1.107
+ RL=1.667MEG RS=12.37m TT=369.946n VJ=1.27)

*** Fast Recovery Power Rectifier
.MODEL 1N3889 D (BV=50 CJO=105.777p IBV=100p IS=230.59n M=320.122m N=2.192
+ RL=1.801MEG RS=8.296m TT=369.946n VJ=1.465)

*** Fast Recovery Power Rectifier
.MODEL 1N3890 D (BV=100 CJO=105.777p IBV=100p IS=194.702n M=320.122m N=2.169
+ RL=1.798MEG RS=8.34m TT=369.946n VJ=1.465)

*** Fast Recovery Power Rectifier
.MODEL 1N3891 D (BV=200 CJO=105.777p IBV=100p IS=161.341n M=320.122m N=2.143
+ RL=1.796MEG RS=8.388m TT=369.946n VJ=1.465)

*** Fast Recovery Power Rectifier
.MODEL 1N3892 D (BV=300 CJO=105.777p IBV=100p IS=212.571n M=320.122m N=2.181
+ RL=1.799MEG RS=8.316m TT=369.946n VJ=1.465)

*** Fast Recovery Power Rectifier
.MODEL 1N3893 D (BV=400 CJO=105.777p IBV=100p IS=194.702n M=320.122m N=2.169
+ RL=1.798MEG RS=8.34m TT=369.946n VJ=1.465)

*** Fast Recovery Power Rectifier
.MODEL 1N3899 D (BV=50 CJO=130.388p IBV=100p IS=46.311p M=300m N=1.347
+ RL=1.786MEG RS=6.558m TT=521.409n VJ=2.335)

*** Fast Recovery Power Rectifier
.MODEL 1N3900 D (BV=100 CJO=130.388p IBV=100p IS=28u M=300m N=2.678 RL=1.786MEG
+ RS=1.6m TT=521.409n VJ=2.335)

*** Fast Recovery Power Rectifier
.MODEL 1N3901 D (BV=200 CJO=130.388p IBV=100p IS=45.59p M=300m N=1.346
+ RL=1.786MEG RS=6.559m TT=521.409n VJ=2.335)

*** Fast Recovery Power Rectifier
.MODEL 1N3902 D (BV=300 CJO=130.388p IBV=100p IS=45.607p M=300m N=1.346
+ RL=1.786MEG RS=6.559m TT=521.409n VJ=2.335)

*** Fast Recovery Power Rectifier
.MODEL 1N3903 D (BV=400 CJO=130.388p IBV=100p IS=45.624p M=300m N=1.346
+ RL=1.786MEG RS=6.559m TT=521.409n VJ=2.335)

*** Fast Recovery Power Rectifier
.MODEL 1N3909 D (BV=50 CJO=110.332p IBV=100p IS=910.624p M=300.174m N=1.531
+ RL=1.786MEG RS=3.971m TT=293.642n VJ=1.039)

*** Fast Recovery Power Rectifier
.MODEL 1N3910 D (BV=100 CJO=110.332p IBV=100p IS=867.033p M=300.174m N=1.527
+ RL=1.786MEG RS=3.974m TT=293.642n VJ=1.039)

*** Fast Recovery Power Rectifier
.MODEL 1N3911 D (BV=200 CJO=110.332p IBV=100p IS=891.593p M=300.174m N=1.529
+ RL=1.786MEG RS=3.972m TT=293.642n VJ=1.039)

*** Fast Recovery Power Rectifier
.MODEL 1N3912 D (BV=300 CJO=110.332p IBV=100p IS=853.006p M=300.174m N=1.526
+ RL=1.786MEG RS=3.975m TT=293.642n VJ=1.039)

*** Fast Recovery Power Rectifier
.MODEL 1N3913 D (BV=400 CJO=110.332p IBV=100p IS=862.441p M=300.174m N=1.527
+ RL=1.786MEG RS=3.974m TT=293.642n VJ=1.039)

*** 1.0 Amp Silicon Rectifier
.MODEL 1N4001 D (BV=50 CJO=47.636p IBV=100p IS=1.844u M=449.723m N=2.689
+ RL=10.007MEG RS=13.723m TT=4.933u VJ=700m)

*** 1.0 Amp Silicon Rectifier
.MODEL 1N4002 D (BV=100 CJO=47.636p IBV=100p IS=3.507n M=449.723m N=1.695
+ RL=20.014MEG RS=121.233m TT=4.933u VJ=700m)

*** 1.0 Amp Silicon Rectifier
.MODEL 1N4003 D (BV=200 CJO=47.636p IBV=100p IS=3.507n M=449.723m N=1.695
+ RL=40.028MEG RS=121.233m TT=4.933u VJ=700m)

*** 1.0 Amp Silicon Rectifier
.MODEL 1N4004 D (BV=400 CJO=47.636p IBV=100p IS=3.507n M=449.723m N=1.695
+ RL=80.056MEG RS=121.233m TT=4.933u VJ=700m)

*** 1.0 Amp Silicon Rectifier
.MODEL 1N4005 D (BV=600 CJO=47.636p IBV=100p IS=3.507n M=449.723m N=1.695
+ RL=120.084MEG RS=121.233m TT=4.933u VJ=700m)

*** 1.0 Amp Silicon Rectifier
.MODEL 1N4006 D (BV=800 CJO=34.328p IBV=100p IS=3.507n M=473.117m N=1.695
+ RL=160.112MEG RS=121.233m TT=7.213u VJ=700m)

*** 1.0 Amp Silicon Rectifier
.MODEL 1N4007 D (BV=1K CJO=34.328p IBV=100p IS=3.507n M=473.117m N=1.695
+ RL=200.14MEG RS=121.233m TT=7.213u VJ=700m)

*** Generic Diode
.MODEL 1N4148 D (BV=100 CJO=1.337p IBV=100p IS=8n M=316.713m N=2.011 RL=3.521G
+ RS=649.339m TT=8.953n VJ=9.477)

*** Generic Diode
.MODEL 1N4150 D (BV=75 CJO=1.334p IBV=100p IS=2.354n M=300m N=1.77 RL=2.652G
+ RS=1.414 TT=5.771n VJ=8.576)

*** Fast Recovery Rectifier
.MODEL 1N4933 D (BV=50 CJO=27.279p IBV=100p IS=1u M=443.767m N=2.744 RL=100T
+ RS=22.705m TT=216.404n VJ=810.515m)

*** Fast Recovery Rectifier
.MODEL 1N4934 D (BV=100 CJO=27.279p IBV=100p IS=1u M=443.767m N=2.744 RL=100T
+ RS=22.705m TT=216.404n VJ=810.515m)

*** Fast Recovery Rectifier
.MODEL 1N4935 D (BV=200 CJO=27.279p IBV=100p IS=1u M=443.767m N=2.744 RL=100T
+ RS=22.705m TT=216.404n VJ=810.515m)

*** Fast Recovery Rectifier
.MODEL 1N4936 D (BV=400 CJO=27.279p IBV=100p IS=1u M=443.767m N=2.744 RL=100T
+ RS=22.705m TT=216.404n VJ=810.515m)

*** Fast Recovery Rectifier
.MODEL 1N4937 D (BV=600 CJO=27.279p IBV=100p IS=1u M=443.767m N=2.744 RL=100T
+ RS=22.705m TT=216.404n VJ=810.515m)

*** Lead mounted silicon rectifier
.MODEL 1N5391 D (BV=50 CJO=50.313p IBV=100p IS=63.641n M=492.102m N=2.223 RL=1G
+ RS=27.271m TT=5.309u VJ=700m)

*** Lead mounted silicon rectifier
.MODEL 1N5392 D (BV=100 CJO=50.313p IBV=100p IS=8.296n M=492.102m N=1.905 RL=1G
+ RS=38.91m TT=5.309u VJ=700m)

*** Lead mounted silicon rectifier
.MODEL 1N5393 D (BV=200 CJO=50.313p IBV=100p IS=8.296n M=492.102m N=1.905 RL=1G
+ RS=38.91m TT=5.309u VJ=700m)

*** Lead mounted silicon rectifier
.MODEL 1N5395 D (BV=400 CJO=50.313p IBV=100p IS=8.299n M=492.102m N=1.905 RL=1G
+ RS=38.91m TT=5.309u VJ=700m)

*** Lead mounted silicon rectifier
.MODEL 1N5397 D (BV=600 CJO=50.313p IBV=100p IS=7.609n M=492.102m N=1.896 RL=1G
+ RS=38.983m TT=5.309u VJ=700m)

*** Lead mounted silicon rectifier
.MODEL 1N5398 D (BV=800 CJO=36.056p IBV=100p IS=7.773n M=512.418m N=1.898 RL=1G
+ RS=38.967m TT=7.584u VJ=700m)

*** Lead mounted silicon rectifier
.MODEL 1N5399 D (BV=1K CJO=36.056p IBV=100p IS=7.888n M=512.418m N=1.9 RL=1G
+ RS=38.95m TT=7.584u VJ=700m)

*** Standard recovery rectifiers
.MODEL 1N5400 D (BV=50 CJO=50.372p IBV=100p IS=829.415f M=300m N=1.159 RL=10MEG
+ RS=9.872m TT=5u VJ=864.598m)

*** Standard recovery rectifiers
.MODEL 1N5401 D (BV=100 CJO=50.372p IBV=100p IS=301.208f M=300m N=1.12 RL=20MEG
+ RS=9.924m TT=5u VJ=864.593m)

*** Standard recovery rectifiers
.MODEL 1N5402 D (BV=200 CJO=50.372p IBV=100p IS=511.04f M=300m N=1.14 RL=40MEG
+ RS=9.882m TT=5u VJ=864.593m)

*** Standard recovery rectifiers
.MODEL 1N5404 D (BV=400 CJO=50.372p IBV=100p IS=301.208f M=300m N=1.12 RL=80MEG
+ RS=9.924m TT=5u VJ=864.593m)

*** Standard recovery rectifiers
.MODEL 1N5406 D (BV=600 CJO=50.372p IBV=100p IS=627.124f M=300m N=1.148
+ RL=120MEG RS=9.887m TT=5u VJ=864.577m)

*** Schottky Barrier Diode
.MODEL 1N5711 D (BV=70 CJO=1.476p EG=690m IS=789.982p M=397.031m N=951.045m
+ RL=22.962MEG RS=26.464 VJ=700m XTI=2)

*** Schottky Barrier Diode
.MODEL 1N5712 D (BV=20 CJO=791.53f EG=690m IS=4.095n M=300m N=1.222 RL=2.117G
+ RS=7.502 VJ=3.952 XTI=2)

*** Schottky Barrier Rectifier
.MODEL 1N5817 D (BV=20 CJO=222.598p EG=690m IBV=100p IS=6.321u M=1.367 N=1.096
+ RL=47.801K RS=82.062m VJ=11.74 XTI=2)

*** Schottky Barrier Rectifier
.MODEL 1N5818 D (BV=30 CJO=189.908p EG=690m IBV=100p IS=6.321u M=1.122 N=1.096
+ RL=82.17K RS=82.062m VJ=6.591 XTI=2)

*** Schottky Barrier Rectifier
.MODEL 1N5819 D (BV=40 CJO=144.679p EG=690m IBV=100p IS=6.321u M=853.398m
+ N=1.096 RL=118.767K RS=82.062m VJ=3.914 XTI=2)

*** Schottky Barrier Rectifier
.MODEL 1N5820 D (BV=20 CJO=530.507p EG=690m IBV=100p IS=3.164u M=2.517
+ N=882.269m RL=52.059K RS=50.696m VJ=48.108 XTI=2)

*** Schottky Barrier Rectifier
.MODEL 1N5821 D (BV=30 CJO=427.932p EG=690m IBV=100p IS=3.164u M=5.433
+ N=882.269m RL=85.404K RS=50.696m VJ=100 XTI=2)

*** Schottky Barrier Rectifier
.MODEL 1N5822 D (BV=40 CJO=395.386p EG=690m IBV=100p IS=3.164u M=1.524
+ N=882.269m RL=183.18K RS=50.696m VJ=16.024 XTI=2)

*** Schottky Barrier Rectifier
.MODEL 1N5823 D (BV=20 CJO=2.354n EG=690m IBV=100p IS=27.66u M=488.265m
+ N=977.122m RL=6.989K RS=4.25m VJ=700m XTI=2)

*** Schottky Barrier Rectifier
.MODEL 1N5824 D (BV=30 CJO=1.897n EG=690m IBV=100p IS=27.658u M=506.091m
+ N=977.116m RL=8.468K RS=4.25m VJ=700m XTI=2)

*** Schottky Barrier Rectifier
.MODEL 1N5825 D (BV=40 CJO=1.761n EG=690m IBV=100p IS=27.658u M=535.734m
+ N=977.116m RL=12.409K RS=4.25m VJ=700m XTI=2)

*** Schottky Barrier Rectifier
.MODEL 1N5826 D (BV=20 CJO=2.355n EG=690m IBV=100p IS=27.658u M=473.692m
+ N=977.118m RL=6.989K RS=4.25m VJ=700m XTI=2)

*** Schottky Barrier Rectifier
.MODEL 1N5827 D (BV=30 CJO=1.893n EG=690m IBV=100p IS=27.657u M=502.724m
+ N=977.114m RL=8.468K RS=4.25m VJ=700m XTI=2)

*** Schottky Barrier Rectifier
.MODEL 1N5828 D (BV=40 CJO=1.717n EG=690m IBV=100p IS=27.658u M=522.26m
+ N=977.116m RL=12.409K RS=4.25m VJ=700m XTI=2)

*** Schottky Barrier Rectifier
.MODEL 1N5829 D (BV=20 CJO=6.17n EG=690m IBV=100p IS=11.994u M=663.087m
+ N=856.587m RL=3.367K RS=4.032m VJ=700m XTI=2)

*** Schottky Barrier Rectifier
.MODEL 1N5830 D (BV=30 CJO=4.881n EG=690m IBV=100p IS=10.995u M=636.635m
+ N=850.793m RL=4.044K RS=4.037m VJ=700m XTI=2)

*** Schottky Barrier Rectifier
.MODEL 1N5831 D (BV=40 CJO=4.089n EG=690m IBV=100p IS=11.971u M=635.67m
+ N=856.462m RL=5.814K RS=4.032m VJ=700m XTI=2)

*** Schottky Barrier Rectifier
.MODEL 1N5832 D (BV=20 CJO=6.194n EG=690m IBV=100p IS=11.953u M=670.427m
+ N=856.365m RL=3.367K RS=4.032m VJ=700m XTI=2)

*** Schottky Barrier Rectifier
.MODEL 1N5833 D (BV=30 CJO=4.881n EG=690m IBV=100p IS=11.971u M=636.635m
+ N=856.462m RL=4.048K RS=4.032m VJ=700m XTI=2)

*** Schottky Barrier Rectifier
.MODEL 1N5834 D (BV=40 CJO=4.311n EG=690m IBV=100p IS=11.95u M=666.484m
+ N=856.345m RL=5.814K RS=4.033m VJ=700m XTI=2)

*** Schottky Barrier Rectifier
.MODEL 1N6095 D (BV=30 CJO=2.252n EG=690m IBV=100p IS=25u M=493.591m N=1.256
+ RL=100T RS=4.804m VJ=722.054m XTI=2)

*** Schottky Barrier Rectifier
.MODEL 1N6096 D (BV=40 CJO=2.252n EG=690m IBV=100p IS=34u M=493.591m N=1.289
+ RL=100T RS=4.767m VJ=722.054m XTI=2)

*** Schottky Barrier Rectifier
.MODEL 1N6097 D (BV=30 CJO=4.721n EG=690m IBV=100p IS=100u M=550.904m N=1.424
+ RL=100T RS=3.501m VJ=700m XTI=2)

*** Schottky Barrier Rectifier
.MODEL 1N6098 D (BV=40 CJO=4.721n EG=690m IBV=100p IS=200u M=550.904m N=1.526
+ RL=100T RS=3.381m VJ=700m XTI=2)

*** Schottky Barrier Rectifier
.MODEL MBR030 D (BV=30 CJO=74.248p EG=690m IBV=100p IS=79.963u M=300m N=2.474
+ RL=1G RS=114.374m VJ=14.615 XTI=2)

*** Schottky Barrier Rectifier
.MODEL MBR040 D (BV=40 CJO=74.248p EG=690m IBV=100p IS=79.9u M=300m N=2.473
+ RL=1G RS=114.389m VJ=14.615 XTI=2)

*** Schottky Barrier Rectifier
.MODEL MBR115P D (BV=15 CJO=222.598p EG=690m IBV=100p IS=10.963u M=1.367
+ N=1.154 RL=62.752K RS=80.955m VJ=11.74 XTI=2)

*** Schottky Barrier Rectifier
.MODEL MBR120P D (BV=20 CJO=222.598p EG=690m IBV=100p IS=9.172u M=1.367 N=1.133
+ RL=68.769K RS=81.528m VJ=11.74 XTI=2)

*** Schottky Barrier Rectifier
.MODEL MBR130P D (BV=30 CJO=189.908p EG=690m IBV=100p IS=7.081u M=1.122 N=1.104
+ RL=102.417K RS=82.173m VJ=6.591 XTI=2)

*** Schottky Barrier Rectifier
.MODEL MBR140P D (BV=40 CJO=144.679p EG=690m IBV=100p IS=7.19u M=853.398m
+ N=1.105 RL=136.607K RS=82.158m VJ=3.914 XTI=2)

*** Schottky Barrier Rectifier
.MODEL MBR150 D (BV=50 CJO=360.053p EG=690m IBV=100p IS=147.477u M=753.986m
+ N=2.203 RL=9.612K RS=126.34m VJ=700m XTI=2)

*** Schottky Barrier Rectifier
.MODEL MBR160 D (BV=60 CJO=360.053p EG=690m IBV=100p IS=124.99u M=753.986m
+ N=2.143 RL=9.454K RS=129.967m VJ=700m XTI=2)

*** Schottky Barrier Rectifier
.MODEL MBR320 D (BV=20 CJO=552.096p EG=690m IBV=100p IS=3u M=532.301m N=1.152
+ RL=100T RS=22.402m VJ=700m XTI=2)

*** Schottky Barrier Rectifier
.MODEL MBR320P D (BV=20 CJO=530.507p EG=690m IBV=100p IS=3.162u M=2.517
+ N=882.239m RL=52.058K RS=50.696m VJ=48.108 XTI=2)

*** Schottky Barrier Rectifier
.MODEL MBR330 D (BV=30 CJO=552.096p EG=690m IBV=100p IS=3.8u M=532.301m N=1.175
+ RL=100T RS=22.255m VJ=700m XTI=2)

*** Schottky Barrier Rectifier
.MODEL MBR330P D (BV=30 CJO=427.932p EG=690m IBV=100p IS=3.164u M=5.433
+ N=882.269m RL=85.404K RS=50.696m VJ=100 XTI=2)

*** Schottky Barrier Rectifier
.MODEL MBR340 D (BV=40 CJO=552.096p EG=690m IBV=100p IS=6.5u M=532.301m N=1.23
+ RL=100T RS=21.9m VJ=700m XTI=2)

*** Schottky Barrier Rectifier
.MODEL MBR340P D (BV=40 CJO=395.386p EG=690m IBV=100p IS=3.164u M=1.524
+ N=882.269m RL=183.18K RS=50.696m VJ=16.024 XTI=2)

*** Schottky Barrier Rectifier
.MODEL MBR350 D (BV=50 CJO=319.77p EG=690m IBV=100p IS=1.764u M=878.749m
+ N=1.104 RL=8.017MEG RS=53.064m VJ=4.104 XTI=2)

*** Schottky Barrier Rectifier
.MODEL MBR360 D (BV=60 CJO=319.77p EG=690m IBV=100p IS=1.763u M=878.749m
+ N=1.104 RL=8.29MEG RS=53.064m VJ=4.104 XTI=2)

*** Schottky Barrier Rectifier
.MODEL MBR1035 D (BV=35 CJO=1.012n EG=690m IBV=100p IS=14.502u M=537.695m
+ N=1.409 RL=1.321MEG RS=10.868m VJ=700m XTI=2)

*** Schottky Barrier Rectifier
.MODEL MBR1045 D (BV=45 CJO=1.012n EG=690m IBV=100p IS=14.496u M=537.695m
+ N=1.409 RL=810.749K RS=10.868m VJ=700m XTI=2)

*** Schottky Barrier Rectifier(Dual)
.MODEL MBR2035CT D (BV=35 CJO=973.823p EG=690m IBV=100p IS=2.156u M=512.102m
+ N=1.149 RL=257.443K RS=11.571m VJ=700m XTI=2)

*** Schottky Barrier Rectifier(Dual)
.MODEL MBR2045CT D (BV=45 CJO=973.823p EG=690m IBV=100p IS=2.156u M=512.102m
+ N=1.149 RL=663.29K RS=11.571m VJ=700m XTI=2)

*** Schottky Barrier Rectifiers(Dual)
.MODEL MBR3020CT D (BV=20 CJO=2.565n EG=690m IBV=100p IS=19.561p M=579.11m
+ N=556.23m RL=1MEG RS=8.558m VJ=700m XTI=2)

*** Schottky Barrier Rectifiers(Dual)
.MODEL MBR3035CT D (BV=35 CJO=2.565n EG=690m IBV=100p IS=19.561p M=579.11m
+ N=556.23m RL=1MEG RS=8.558m VJ=700m XTI=2)

*** Schottky Barrier Rectifiers(Dual)
.MODEL MBR3035PT D (BV=35 CJO=2.565n EG=690m IBV=100p IS=22.679n M=579.11m
+ N=814.222m RL=1.002MEG RS=7.839m VJ=700m XTI=2)

*** Schottky Barrier Rectifiers(Dual)
.MODEL MBR3045CT D (BV=45 CJO=2.565n EG=690m IBV=100p IS=19.561p M=579.11m
+ N=556.23m RL=1MEG RS=8.558m VJ=700m XTI=2)

*** Schottky Barrier Rectifiers(Dual)
.MODEL MBR3045PT D (BV=45 CJO=2.565n EG=690m IBV=100p IS=22.679n M=579.11m
+ N=814.222m RL=1.002MEG RS=7.839m VJ=700m XTI=2)

*** Schottky Barrier Rectifier
.MODEL MBR3520 D (BV=20 CJO=5.652n EG=690m IBV=100p IS=719.494n M=628.33m
+ N=995.206m RL=316.053K RS=4.513m VJ=700m XTI=2)

*** Schottky Barrier Rectifier
.MODEL MBR3535 D (BV=35 CJO=5.652n EG=690m IBV=100p IS=719.535n M=628.33m
+ N=995.21m RL=316.053K RS=4.513m VJ=700m XTI=2)

*** Schottky Barrier Rectifier
.MODEL MBR3545 D (BV=45 CJO=5.652n EG=690m IBV=100p IS=719.538n M=628.33m
+ N=995.21m RL=316.053K RS=4.513m VJ=700m XTI=2)

*** Schottky Barrier Rectifier
.MODEL MBR3545H D (BV=45 CJO=5.652n EG=690m IBV=100p IS=719.552n M=628.33m
+ N=995.212m RL=316.053K RS=4.513m VJ=700m XTI=2)

*** Schottky Barrier Rectifier
.MODEL MBR3545H1 D (BV=45 CJO=5.652n EG=690m IBV=100p IS=719.54n M=628.33m
+ N=995.211m RL=316.053K RS=4.513m VJ=700m XTI=2)

*** Schottky Barrier Rectifier
.MODEL MBR5825H D (BV=40 CJO=1.761n EG=690m IBV=100p IS=27.66u M=535.734m
+ N=977.121m RL=12.409K RS=4.25m VJ=700m XTI=2)

*** Schottky Barrier Rectifier
.MODEL MBR5825H1 D (BV=40 CJO=1.761n EG=690m IBV=100p IS=27.659u M=535.734m
+ N=977.12m RL=12.409K RS=4.25m VJ=700m XTI=2)

*** Schottky Barrier Rectifier
.MODEL MBR5831H D (BV=40 CJO=4.089n EG=690m IBV=100p IS=29.176u M=635.67m
+ N=924.879m RL=5.963K RS=3.862m VJ=700m XTI=2)

*** Schottky Barrier Rectifier
.MODEL MBR5831H1 D (BV=40 CJO=4.089n EG=690m IBV=100p IS=28.403u M=635.67m
+ N=922.738m RL=5.956K RS=3.864m VJ=700m XTI=2)

*** Schottky Rectifier
.MODEL MBR6015L D (BV=15 CJO=9.678n EG=690m IBV=100p IS=151.843n M=556.75m
+ N=805.385m RL=29.425K RS=1.023m VJ=700m XTI=2)

*** Schottky Rectifier
.MODEL MBR6020L D (BV=20 CJO=9.678n EG=690m IBV=100p IS=151.843n M=556.75m
+ N=805.385m RL=29.425K RS=1.023m VJ=700m XTI=2)

*** Schottky Rectifier
.MODEL MBR6025L D (BV=25 CJO=9.678n EG=690m IBV=100p IS=152.622n M=556.75m
+ N=805.767m RL=29.425K RS=1.024m VJ=700m XTI=2)

*** Schottky Rectifier
.MODEL MBR6030L D (BV=30 CJO=9.678n EG=690m IBV=100p IS=151.843n M=556.75m
+ N=805.385m RL=29.425K RS=1.023m VJ=700m XTI=2)

*** Schottky Rectifier
.MODEL MBR6035 D (BV=35 CJO=4.802n EG=690m IBV=100p IS=2.095u M=537.088m
+ N=1.075 RL=323.076K RS=3.545m VJ=700m XTI=2)

*** Schottky Rectifier
.MODEL MBR6035B D (BV=35 CJO=4.802n EG=690m IBV=100p IS=2.094u M=537.088m
+ N=1.075 RL=323.071K RS=3.545m VJ=700m XTI=2)

*** Schottky Rectifier
.MODEL MBR6045 D (BV=45 CJO=4.802n EG=690m IBV=100p IS=2.086u M=537.088m
+ N=1.075 RL=323.028K RS=3.545m VJ=700m XTI=2)

*** Schottky Rectifier
.MODEL MBR6045B D (BV=45 CJO=4.802n EG=690m IBV=100p IS=2.086u M=537.088m
+ N=1.075 RL=323.031K RS=3.545m VJ=700m XTI=2)

*** Schottky Rectifier
.MODEL MBR6045H D (BV=45 CJO=4.802n EG=690m IBV=100p IS=2.085u M=537.088m
+ N=1.075 RL=323.025K RS=3.545m VJ=700m XTI=2)

*** Schottky Rectifier
.MODEL MBR6045H1 D (BV=45 CJO=4.802n EG=690m IBV=100p IS=2.086u M=537.088m
+ N=1.075 RL=323.031K RS=3.545m VJ=700m XTI=2)

*** High Temp Schottky Rectifier
.MODEL MBR6535 D (BV=35 CJO=4.802n EG=690m IBV=100p IS=3.752u M=537.088m
+ N=1.237 RL=28.042MEG RS=2.994m VJ=700m XTI=2)

*** High Temp Schottky Rectifier
.MODEL MBR6545 D (BV=45 CJO=4.802n EG=690m IBV=100p IS=3.699u M=537.088m
+ N=1.236 RL=7.141MEG RS=2.996m VJ=700m XTI=2)

*** Schottky Barrier Rectifier
.MODEL MBR7535 D (BV=35 CJO=13.279n EG=690m IBV=100p IS=20.133u M=1 N=1.13
+ RL=125.209K RS=2.152m VJ=2.155 XTI=2)

*** Schottky Barrier Rectifier
.MODEL MBR7540 D (BV=40 CJO=13.279n EG=690m IBV=100p IS=15.937u M=1 N=1.109
+ RL=118.959K RS=2.164m VJ=2.155 XTI=2)

*** Schottky Barrier Rectifier
.MODEL MBR7545 D (BV=45 CJO=13.279n EG=690m IBV=100p IS=2.526u M=1 N=967.097m
+ RL=102.592K RS=2.241m VJ=2.155 XTI=2)

*** Schottky Rectifier
.MODEL MBR8035 D (BV=35 CJO=7.688n EG=690m IBV=100p IS=11u M=603.084m N=1.199
+ RL=100T RS=2.669m VJ=700m XTI=2)

*** Schottky Rectifier
.MODEL MBR8045 D (BV=45 CJO=7.688n EG=690m IBV=100p IS=13.555u M=603.084m
+ N=1.221 RL=6.044MEG RS=2.637m VJ=700m XTI=2)

*** Schottky Barrier Rectifier(Dual)
.MODEL MBR12035CT D (BV=35 CJO=4.393n EG=690m IBV=100p IS=18u M=563.385m N=1.41
+ RL=100T RS=1.983m VJ=700m XTI=2)

*** Schottky Barrier Rectifier(Dual)
.MODEL MBR12045CT D (BV=45 CJO=4.393n EG=690m IBV=100p IS=40u M=563.385m
+ N=1.506 RL=100T RS=1.903m VJ=700m XTI=2)

*** Schottky Barrier Rectifier(Dual)
.MODEL MBR12050CT D (BV=50 CJO=4.393n EG=690m IBV=100p IS=40u M=563.385m
+ N=1.506 RL=100T RS=1.903m VJ=700m XTI=2)

*** Schottky Barrier Rectifier(Dual)
.MODEL MBR12060CT D (BV=60 CJO=4.393n EG=690m IBV=100p IS=40u M=563.385m
+ N=1.506 RL=100T RS=1.903m VJ=700m XTI=2)

*** Low Vf Schottky Barrier Rectifier
.MODEL MBR20015CTL D (BV=15 CJO=18.523n EG=690m IBV=100p IS=73.959u M=634.832m
+ N=1.025 RL=56.382K RS=575.731u VJ=1.025 XTI=2)

*** Low Vf Schottky Barrier Rectifier
.MODEL MBR20020CTL D (BV=20 CJO=18.523n EG=690m IBV=100p IS=64.533u M=634.832m
+ N=1.014 RL=30.054K RS=581.369u VJ=1.025 XTI=2)

*** Low Vf Schottky Barrier Rectifier
.MODEL MBR20025CTL D (BV=25 CJO=18.523n EG=690m IBV=100p IS=49.943u M=634.832m
+ N=993.796m RL=166.603K RS=591.325u VJ=1.025 XTI=2)

*** Low Vf Schottky Barrier Rectifier
.MODEL MBR20030CTL D (BV=30 CJO=18.523n EG=690m IBV=100p IS=49.943u M=634.832m
+ N=993.796m RL=66.641K RS=591.325u VJ=1.025 XTI=2)

*** Schottky Barrier Rectifiers(Dual)
.MODEL MBR30035CT D (BV=35 CJO=15.283n EG=690m IBV=100p IS=37u M=640.27m
+ N=1.357 RL=100T RS=817.454u VJ=700m XTI=2)

*** Schottky Barrier Rectifiers(Dual)
.MODEL MBR30045CT D (BV=45 CJO=15.283n EG=690m IBV=100p IS=43.056u M=640.27m
+ N=1.374 RL=2.149MEG RS=806.074u VJ=700m XTI=2)

*** Schottky Barrier Rectifiers(Dual)
.MODEL MBR30050CT D (BV=50 CJO=15.283n EG=690m IBV=100p IS=32.779u M=640.27m
+ N=1.341 RL=743.813K RS=844.527u VJ=700m XTI=2)

*** Schottky Barrier Rectifiers(Dual)
.MODEL MBR30060CT D (BV=60 CJO=15.283n EG=690m IBV=100p IS=32.767u M=640.27m
+ N=1.341 RL=743.687K RS=844.527u VJ=700m XTI=2)

*** Schottky Barrier Rectifier
.MODEL MBRD320 D (BV=20 CJO=801.569p EG=690m IBV=100p IS=16.749p M=538.557m
+ N=500m RL=5MEG RS=41.327m VJ=700m XTI=2)

*** Schottky Barrier Rectifier
.MODEL MBRD330 D (BV=30 CJO=801.569p EG=690m IBV=100p IS=16.749p M=538.557m
+ N=500m RL=5MEG RS=41.327m VJ=700m XTI=2)

*** Schottky Barrier Rectifier
.MODEL MBRD340 D (BV=40 CJO=801.569p EG=690m IBV=100p IS=16.749p M=538.557m
+ N=500m RL=5MEG RS=41.327m VJ=700m XTI=2)

*** Schottky Barrier Rectifier
.MODEL MBRD350 D (BV=50 CJO=801.569p EG=690m IBV=100p IS=16.749p M=538.557m
+ N=500m RL=5MEG RS=41.327m VJ=700m XTI=2)

*** Schottky Barrier Rectifier
.MODEL MBRD360 D (BV=60 CJO=801.569p EG=690m IBV=100p IS=16.748p M=538.557m
+ N=500m RL=5MEG RS=41.327m VJ=700m XTI=2)

*** Schottky Barrier Rectifier(Dual)
.MODEL MBRD620CT D (BV=20 CJO=810.542p EG=690m IBV=100p IS=84.619u M=893.54m
+ N=1.72 RL=1.3MEG RS=51.051m VJ=1.963 XTI=2)

*** Schottky Barrier Rectifier(Dual)
.MODEL MBRD630CT D (BV=30 CJO=810.542p EG=690m IBV=100p IS=84.668u M=893.54m
+ N=1.72 RL=1.957MEG RS=51.05m VJ=1.963 XTI=2)

*** Schottky Barrier Rectifier(Dual)
.MODEL MBRD640CT D (BV=40 CJO=810.542p EG=690m IBV=100p IS=84.668u M=893.54m
+ N=1.72 RL=2.609MEG RS=51.05m VJ=1.963 XTI=2)

*** Schottky Barrier Rectifier(Dual)
.MODEL MBRD650CT D (BV=50 CJO=810.542p EG=690m IBV=100p IS=84.619u M=893.54m
+ N=1.72 RL=3.251MEG RS=51.051m VJ=1.963 XTI=2)

*** Schottky Barrier Rectifier(Dual)
.MODEL MBRD660CT D (BV=60 CJO=810.542p EG=690m IBV=100p IS=84.619u M=893.54m
+ N=1.72 RL=3.901MEG RS=51.051m VJ=1.963 XTI=2)

*** Leadless Schottky Rectifier
.MODEL MBRL120 D (BV=20 CJO=116.839p EG=690m IBV=100p IS=589.913u M=456.375m
+ N=2.947 RL=1G RS=46.299m VJ=700m XTI=2)

*** Leadless Schottky Rectifier
.MODEL MBRL130 D (BV=30 CJO=116.839p EG=690m IBV=100p IS=589.909u M=456.375m
+ N=2.947 RL=1G RS=46.299m VJ=700m XTI=2)

*** Leadless Schottky Rectifier
.MODEL MBRL140 D (BV=40 CJO=116.839p EG=690m IBV=100p IS=488.468u M=456.375m
+ N=2.862 RL=1G RS=47.058m VJ=700m XTI=2)

*** Standard recovery power rectifiers
.MODEL MR500 D (BV=50 CJO=70.063p IBV=100p IS=6.877p M=556.004m N=1.257 RL=1G
+ RS=9.351m TT=6.989u VJ=700m)

*** Standard recovery power rectifiers
.MODEL MR501 D (BV=100 CJO=70.063p IBV=100p IS=6.868p M=556.004m N=1.257 RL=1G
+ RS=9.351m TT=6.989u VJ=700m)

*** Standard recovery power rectifiers
.MODEL MR502 D (BV=200 CJO=70.063p IBV=100p IS=6.794p M=556.004m N=1.257 RL=1G
+ RS=9.352m TT=6.989u VJ=700m)

*** Standard recovery power rectifiers
.MODEL MR504 D (BV=400 CJO=70.063p IBV=100p IS=6.473p M=556.004m N=1.254 RL=1G
+ RS=9.354m TT=6.989u VJ=700m)

*** Standard recovery power rectifiers
.MODEL MR506 D (BV=600 CJO=70.063p IBV=100p IS=5.753p M=556.004m N=1.248 RL=1G
+ RS=9.366m TT=6.989u VJ=700m)

*** Standard recovery power rectifiers
.MODEL MR508 D (BV=800 CJO=70.063p IBV=100p IS=5.81p M=556.004m N=1.249 RL=1G
+ RS=9.359m TT=6.989u VJ=700m)

*** Standard recovery power rectifiers
.MODEL MR510 D (BV=1K CJO=70.063p IBV=100p IS=5.767p M=556.004m N=1.249 RL=1G
+ RS=9.36m TT=6.989u VJ=700m)

*** High current lead mounted Si rect.
.MODEL MR750 D (BV=50 CJO=1.585n IBV=100p IS=48.896n M=986.309m N=1.692 RL=1G
+ RS=1.631m TT=7.784u VJ=700m)

*** High current lead mounted Si rect.
.MODEL MR751 D (BV=100 CJO=1.585n IBV=100p IS=48.886n M=986.309m N=1.692 RL=1G
+ RS=1.631m TT=7.784u VJ=700m)

*** High current lead mounted Si rect.
.MODEL MR752 D (BV=200 CJO=1.585n IBV=100p IS=48.846n M=986.309m N=1.692 RL=1G
+ RS=1.631m TT=7.784u VJ=700m)

*** High current lead mounted Si Rect.
.MODEL MR754 D (BV=400 CJO=1.585n IBV=100p IS=48.846n M=986.309m N=1.692 RL=1G
+ RS=1.631m TT=7.784u VJ=700m)

*** High current lead mounted Si Rect.
.MODEL MR756 D (BV=600 CJO=1.585n IBV=100p IS=48.866n M=986.309m N=1.692 RL=1G
+ RS=1.631m TT=7.784u VJ=700m)

*** High current lead mounted Si Rect.
.MODEL MR758 D (BV=800 CJO=1.585n IBV=100p IS=48.984n M=986.309m N=1.692 RL=1G
+ RS=1.631m TT=7.784u VJ=700m)

*** High current lead mounted Si Rect.
.MODEL MR760 D (BV=1K CJO=1.585n IBV=100p IS=48.959n M=986.309m N=1.692 RL=1G
+ RS=1.631m TT=7.784u VJ=700m)

*** Fast Recovery power rectifier
.MODEL MR810 D (BV=50 CJO=23.509p IBV=100p IS=22.781u M=505.236m N=3.635 RL=1G
+ RS=16.284m TT=625.549n VJ=1.779)

*** Fast Recovery power rectifier
.MODEL MR811 D (BV=100 CJO=23.509p IBV=100p IS=22.76u M=505.236m N=3.635 RL=1G
+ RS=16.284m TT=625.549n VJ=1.779)

*** Fast Recovery power rectifier
.MODEL MR812 D (BV=200 CJO=23.509p IBV=100p IS=22.773u M=505.236m N=3.635 RL=1G
+ RS=16.284m TT=625.549n VJ=1.779)

*** Fast Recovery power rectifier
.MODEL MR813 D (BV=300 CJO=23.509p IBV=100p IS=22.717u M=505.236m N=3.635 RL=1G