
*---------- DMN3023L Spice Model ----------
.SUBCKT DMN3023L 10 20 30 
*     TERMINALS:  D  G  S
M1 1 2 3 3 NMOS L = 1E-006 W = 1E-006 
RD 10 1 0.01447 
RS 30 3 0.001 
RG 20 2 12 
CGS 2 3 8.446E-010 
EGD 12 0 2 1 1 
VFB 14 0 0 
FFB 2 1 VFB 1 
CGD 13 14 8.7E-010 
R1 13 0 1 
D1 12 13 DLIM 
DDG 15 14 DCGD 
R2 12 15 1 
D2 15 0 DLIM 
DSD 3 10 DSUB 
.MODEL NMOS NMOS LEVEL = 3 VMAX = 5.378E+005 ETA = 0.001 VTO = 1.83 
+ TOX = 6E-008 NSUB = 1E+016 KP = 48.02 U0 = 400 KAPPA = 10 
.MODEL DCGD D CJO = 2.856E-010 VJ = 0.8 M = 0.6 
.MODEL DSUB D IS = 2.256E-010 N = 1.23 RS = 0.01103 BV = 30 CJO = 2.22E-010 VJ = 0.1 M = 0.2257 
.MODEL DLIM D IS = 0.0001 
.ENDS
*Diodes DMN3023L Spice Model v1.0 Last Revised 2015/7/21


*---------- DMNH3010LK3 Spice Model ----------
.SUBCKT DMNH3010LK3 10 20 30 
*     TERMINALS:  D  G  S
M1 1 2 3 3 NMOS L = 1E-006 W = 1E-006 
RD 10 1 0.004289 
RS 30 3 0.001 
RG 20 2 2.36 
CGS 2 3 1.96E-009 
EGD 12 0 2 1 1 
VFB 14 0 0 
FFB 2 1 VFB 1 
CGD 13 14 1.5E-009 
R1 13 0 1 
D1 12 13 DLIM 
DDG 15 14 DCGD 
R2 12 15 1 
D2 15 0 DLIM 
DSD 3 10 DSUB 
.MODEL NMOS NMOS LEVEL = 3 VMAX = 5.378E+005 ETA = 0.001 VTO = 2.613 
+ TOX = 6E-008 NSUB = 1E+016 KP = 98.69 U0 = 400 KAPPA = 10 
.MODEL DCGD D CJO = 7.191E-010 VJ = 0.8 M = 0.6 
.MODEL DSUB D IS = 2.341E-010 N = 1.193 RS = 0.002974 BV = 30 CJO = 3.471E-010 VJ = 0.8 M = 0.6 TT = 1.37E-008 
.MODEL DLIM D IS = 0.0001 
.ENDS
*Diodes DMNH3010LK3 Spice Model v1.0 Last Revised 2015/01/07


*---------- DMT3006LDK Spice Model ----------
.SUBCKT DMT3006LDK 10 20 30 
*     TERMINALS:  D  G  S
M1 1 2 3 3 NMOS L = 1E-006 W = 1E-006 
RD 10 1 0.001846 
RS 30 3 0.001 
RG 20 2 1.04 
CGS 2 3 1.248E-009 
EGD 12 0 2 1 1 
VFB 14 0 0 
FFB 2 1 VFB 1 
CGD 13 14 8E-010 
R1 13 0 1 
D1 12 13 DLIM 
DDG 15 14 DCGD 
R2 12 15 1 
D2 15 0 DLIM 
DSD 3 10 DSUB 
.MODEL NMOS NMOS LEVEL = 3 VMAX = 5.378E+005 ETA = 0.001 VTO = 1.961 
+ TOX = 6E-008 NSUB = 1E+016 KP = 69.31 U0 = 400 KAPPA = 10 
.MODEL DCGD D CJO = 4.861E-010 VJ = 0.8 M = 0.6541 
.MODEL DSUB D IS = 2.305E-010 N = 1.192 RS = 0.003032 BV = 30 CJO = 1.695E-009 VJ = 0.8 M = 0.6 TT=7E-09
.MODEL DLIM D IS = 0.0001 
.ENDS
*Diodes DMT3006LDK Spice Model v1.0M Last Revised 2016/3/2


*---------- DMN4800LSSQ Spice Model ----------
.SUBCKT DMN4800LSSQ 10 20 30 
*     TERMINALS:  D  G  S
M1 1 2 3 3  NMOS  L = 1E-006  W = 1E-006 
RD 10 1 0.00609 
RS 30 3 0.001002 
RG 20 2 1.37 
CGS 2 3 6.734E-010 
EGD 12 0 2 1 1 
VFB 14 0 0 
FFB 2 1  VFB 1 
CGD 13 14 7E-010 
R1 13 0 1 
D1 12 13  DLIM 
DDG 15 14  DCGD 
R2 12 15 1 
D2 15 0  DLIM 
DSD 3 10  DSUB 
.MODEL NMOS NMOS  LEVEL = 3  VMAX = 8E+005  ETA = 0.0001  VTO = 1.515 
+ TOX = 6.045E-008  NSUB = 3.203E+015  KP = 26.14  KAPPA = 26.53  U0 = 400 
.MODEL DCGD D  CJO = 5.334E-010  VJ = 0.3477  M = 0.4238 
.MODEL DSUB D  IS = 2.647E-009  N = 1.306  RS = 0.01224  BV = 35  CJO = 5.333E-011  VJ = 0.6305  M = 0.8 
.MODEL DLIM D  IS = 0.0001 
.ENDS
*Diodes DMN4800LSSQ Spice Model v1.0M Last Revised 2016/3/2


*---------- DMN3018SFGQ Spice Model ----------
.SUBCKT DMN3018SFGQ 10 20 30 
*     TERMINALS:  D  G  S
M1 1 2 3 3 NMOS L = 1E-006 W = 1E-006 
RD 10 1 0.009782 
RS 30 3 0.001 
RG 20 2 1.16 
CGS 2 3 7.066E-010 
EGD 12 0 2 1 1 
VFB 14 0 0 
FFB 2 1 VFB 1 
CGD 13 14 6.066E-010 
R1 13 0 1 
D1 12 13 DLIM 
DDG 15 14 DCGD 
R2 12 15 1 
D2 15 0 DLIM 
DSD 3 10 DSUB 
.MODEL NMOS NMOS LEVEL = 3 VMAX = 8E+005 ETA = 0.001 VTO = 2.353 
+ TOX = 6E-008 NSUB = 1E+016 KP = 52.61 U0 = 400 KAPPA = 4.441E-010 
.MODEL DCGD D CJO = 4.065E-010 VJ = 1 M = 0.9231 
.MODEL DSUB D IS = 2.251E-010 N = 1.3 RS = 0.004445 BV = 33.26 CJO = 2.225E-010 VJ = 0.1072 M = 0.284 
.MODEL DLIM D IS = 0.0001 
.ENDS
*Diodes DMN3018SFGQ  Spice Model v1.0M Last Revised 2016/2/25


*---------- DMTH3004LK3 Spice Model ----------
.SUBCKT DMTH3004LK3 10 20 30 
*     TERMINALS:  D  G  S
M1 1 2 3 3 NMOS L = 1E-006 W = 1E-006 
RD 10 1 0.001 
RS 30 3 0.001 
RG 20 2 1 
CGS 2 3 2.049E-009 
EGD 12 0 2 1 1 
VFB 14 0 0 
FFB 2 1 VFB 1 
CGD 13 14 1.8E-009 
R1 13 0 1 
D1 12 13 DLIM 
DDG 15 14 DCGD 
R2 12 15 1 
D2 15 0 DLIM 
DSD 3 10 DSUB 
.MODEL NMOS NMOS LEVEL = 3 VMAX = 5.378E+005 ETA = 0.001 VTO = 2.164 
+ TOX = 6E-008 NSUB = 1E+016 KP = 135.6 U0 = 400 KAPPA = 10 
.MODEL DCGD D CJO = 9.486E-010 VJ = 2.289 M = 0.7048 
.MODEL DSUB D IS = 2.321E-010 N = 1.181 RS = 0.0003474 BV = 30 CJO = 1.937E-009 VJ = 0.8 M = 0.6 
.MODEL DLIM D IS = 0.0001 
.ENDS
*Diodes DMTH3004LK3 Spice Model v1.0 Last Revised 2015/11/10


*---------- DMT3020LFDB Spice Model ----------
.SUBCKT DMT3020LFDB 10 20 30 
*     TERMINALS:  D  G  S
M1 1 2 3 3 NMOS L = 1E-006 W = 1E-006 
RD 10 1 0.006049 
RS 30 3 0.001 
RG 20 2 1.08 
CGS 2 3 3.632E-010 
EGD 12 0 2 1 1 
VFB 14 0 0 
FFB 2 1 VFB 1 
CGD 13 14 2.7E-010 
R1 13 0 1 
D1 12 13 DLIM 
DDG 15 14 DCGD 
R2 12 15 1 
D2 15 0 DLIM 
DSD 3 10 DSUB 
.MODEL NMOS NMOS LEVEL = 3 VMAX = 5.378E+005 ETA = 0.001 VTO = 1.641 TOX = 6E-008 NSUB = 1E+016 KP = 18.96 U0 = 400 KAPPA = 10 
.MODEL DCGD D CJO = 1.731E-010 VJ = 0.8 M = 0.6441 
.MODEL DSUB D IS = 1.009E-009 N = 1.296 RS = 0.01293 BV = 30 CJO = 5.543E-010 VJ = 0.8 M = 0.6 
.MODEL DLIM D IS = 0.0001 
.ENDS
*Diodes DMT3020LFDB Spice Model v1.0 Last Revised 2015/11/11


*---------- DMT3006LFG Spice Model ----------
.SUBCKT DMT3006LFG 10 20 30 
*     TERMINALS:  D  G  S
M1 1 2 3 3 NMOS L = 1E-006 W = 1E-006 
RD 10 1 0.001846 
RS 30 3 0.001 
RG 20 2 1.04 
CGS 2 3 1.248E-009 
EGD 12 0 2 1 1 
VFB 14 0 0 
FFB 2 1 VFB 1 
CGD 13 14 8E-010 
R1 13 0 1 
D1 12 13 DLIM 
DDG 15 14 DCGD 
R2 12 15 1 
D2 15 0 DLIM 
DSD 3 10 DSUB 
.MODEL NMOS NMOS LEVEL = 3 VMAX = 5.378E+005 ETA = 0.001 VTO = 1.961 
+ TOX = 6E-008 NSUB = 1E+016 KP = 69.31 U0 = 400 KAPPA = 10 
.MODEL DCGD D CJO = 4.861E-010 VJ = 0.8 M = 0.6541 
.MODEL DSUB D IS = 2.305E-010 N = 1.192 RS = 0.003032 BV = 30 CJO = 1.695E-009 VJ = 0.8 M = 0.6 TT=7E-09
.MODEL DLIM D IS = 0.0001 
.ENDS
*Diodes DMT3006LFG Spice Model v1.0M Last Revised 2016/5/3


*---------- DMT3020LFDF Spice Model ----------
.SUBCKT DMT3020LFDF 10 20 30 
*     TERMINALS:  D  G  S
M1 1 2 3 3 NMOS L = 1E-006 W = 1E-006 
RD 10 1 0.006049 
RS 30 3 0.001 
RG 20 2 1.08 
CGS 2 3 3.632E-010 
EGD 12 0 2 1 1 
VFB 14 0 0 
FFB 2 1 VFB 1 
CGD 13 14 2.7E-010 
R1 13 0 1 
D1 12 13 DLIM 
DDG 15 14 DCGD 
R2 12 15 1 
D2 15 0 DLIM 
DSD 3 10 DSUB 
.MODEL NMOS NMOS LEVEL = 3 VMAX = 5.378E+005 ETA = 0.001 VTO = 1.641 TOX = 6E-008 NSUB = 1E+016 KP = 18.96 U0 = 400 KAPPA = 10 
.MODEL DCGD D CJO = 1.731E-010 VJ = 0.8 M = 0.6441 
.MODEL DSUB D IS = 1.009E-009 N = 1.296 RS = 0.01293 BV = 30 CJO = 5.543E-010 VJ = 0.8 M = 0.6 
.MODEL DLIM D IS = 0.0001 
.ENDS
*Diodes DMT3020LFDF Spice Model v1.0M Last Revised 2016/5/6


*---------- DMT3006LFDF Spice Model ----------
.SUBCKT DMT3006LFDF 10 20 30 
*     TERMINALS:  D  G  S
M1 1 2 3 3 NMOS L = 1E-006 W = 1E-006 
RD 10 1 0.001846 
RS 30 3 0.001 
RG 20 2 1.04 
CGS 2 3 1.248E-009 
EGD 12 0 2 1 1 
VFB 14 0 0 
FFB 2 1 VFB 1 
CGD 13 14 8E-010 
R1 13 0 1 
D1 12 13 DLIM 
DDG 15 14 DCGD 
R2 12 15 1 
D2 15 0 DLIM 
DSD 3 10 DSUB 
.MODEL NMOS NMOS LEVEL = 3 VMAX = 5.378E+005 ETA = 0.001 VTO = 1.961 
+ TOX = 6E-008 NSUB = 1E+016 KP = 69.31 U0 = 400 KAPPA = 10 
.MODEL DCGD D CJO = 4.861E-010 VJ = 0.8 M = 0.6541 
.MODEL DSUB D IS = 2.305E-010 N = 1.192 RS = 0.003032 BV = 30 CJO = 1.695E-009 VJ = 0.8 M = 0.6 TT=7E-09
.MODEL DLIM D IS = 0.0001 
.ENDS
*Diodes DMT3006LFDF Spice Model v1.0M Last Revised 2016/5/3


*---------- DMT3006LPS Spice Model ----------
.SUBCKT DMT3006LPS 10 20 30 
*     TERMINALS:  D  G  S
M1 1 2 3 3 NMOS L = 1E-006 W = 1E-006 
RD 10 1 0.001846 
RS 30 3 0.001 
RG 20 2 1.04 
CGS 2 3 1.248E-009 
EGD 12 0 2 1 1 
VFB 14 0 0 
FFB 2 1 VFB 1 
CGD 13 14 8E-010 
R1 13 0 1 
D1 12 13 DLIM 
DDG 15 14 DCGD 
R2 12 15 1 
D2 15 0 DLIM 
DSD 3 10 DSUB 
.MODEL NMOS NMOS LEVEL = 3 VMAX = 5.378E+005 ETA = 0.001 VTO = 1.961 
+ TOX = 6E-008 NSUB = 1E+016 KP = 69.31 U0 = 400 KAPPA = 10 
.MODEL DCGD D CJO = 4.861E-010 VJ = 0.8 M = 0.6541 
.MODEL DSUB D IS = 2.305E-010 N = 1.192 RS = 0.003032 BV = 30 CJO = 1.695E-009 VJ = 0.8 M = 0.6 TT=7E-09
.MODEL DLIM D IS = 0.0001 
.ENDS
*Diodes DMT3006LPS Spice Model v1.0M Last Revised 2016/5/3


*SRC=DMN100;DI_DMN100;MOSFETs N;Enh;30.0V 1.10A 0.150ohms  Diodes Inc. MOSFET
.MODEL DI_DMN100  NMOS( LEVEL=1 VTO=2.00 KP=11.5  GAMMA=2.48
+ PHI=.75  LAMBDA=306u RD=21.0m RS=21.0m
+ IS=550f  PB=0.800 MJ=0.460 CBD=199p 
+ CBS=238p  CGSO=360n CGDO=300n CGBO=840n  )   
*   -- Assumes default L=100U W=100U --


*---------- DMN3008SFGQ Spice Model ----------
.SUBCKT DMN3008SFGQ 10 20 30 
*     TERMINALS:  D  G  S
M1 1 2 3 3 NMOS L = 1E-006 W = 1E-006 
RD 10 1 0.001509 
RS 30 3 0.001 
RG 20 2 0.02 
CGS 2 3 3.299E-009 
EGD 12 0 2 1 1 
VFB 14 0 0 
FFB 2 1 VFB 1 
CGD 13 14 4.5E-009 
R1 13 0 1 
D1 12 13 DLIM 
DDG 15 14 DCGD 
R2 12 15 1 
D2 15 0 DLIM 
DSD 3 10 DSUB 
.MODEL NMOS NMOS LEVEL = 3 VMAX = 5.378E+005 ETA = 0.001 VTO = 1.645 
+ TOX = 6E-008 NSUB = 1E+016 KP = 135.4 U0 = 400 KAPPA = 10 
.MODEL DCGD D CJO = 1.825E-009 VJ = 0.7987 M = 0.6 
.MODEL DSUB D IS = 2.672E-010 N = 1.105 RS = 0.003471 BV = 35 CJO = 6.274E-010 VJ = 0.8 M = 0.6 TT=1E-08
.MODEL DLIM D IS = 0.0001 
.ENDS
*Diodes DMN3008SFGQ Spice Model v1.0M Last Revised 2016/5/3


*---------- DMN3030LSS Spice Model ----------
.SUBCKT DMN3030LSS 10 20 30 
*     TERMINALS:  D  G  S
M1 1 2 3 3  NMOS  L = 1E-006  W = 1E-006 
RD 10 1 0.005805 
RS 30 3 0.001 
RG 20 2 1.32 
CGS 2 3 6.922E-010 
EGD 12 0 2 1 1 
VFB 14 0 0 
FFB 2 1  VFB 1 
CGD 13 14 9.2E-010 
R1 13 0 1 
D1 12 13  DLIM 
DDG 15 14  DCGD 
R2 12 15 1 
D2 15 0  DLIM 
DSD 3 10  DSUB 
.MODEL NMOS NMOS  LEVEL = 3  VMAX = 1E+006  ETA = 0.0143  VTO = 2.028 
+ TOX = 6E-008  NSUB = 1E+017  KP = 21.95  KAPPA = 105  U0 = 200 
.MODEL DCGD D  CJO = 4.611E-010  VJ = 0.3568  M = 0.4267 
.MODEL DSUB D  IS = 2.567E-010  N = 1.254  RS = 0.01257  BV = 35  CJO = 8.267E-011  VJ = 0.4558  M = 0.5515 
.MODEL DLIM D  IS = 0.0001 
.ENDS
*Diodes DMN3030LSS Spice Model v1.0 Last Revised 2011/5/30


*SRC=DMN3033LSD;DI_DMN3033LSD;MOSFETs N;Enh;30.0V 6.90A 22.0mohms  Diodes Inc MOSFET
*SYM=POWMOSN
.SUBCKT DI_DMN3033LSD   10 20 30
*     TERMINALS:  D  G  S
M1   1  2  3  3  DMOS L=1U W=1U
RD  10  1  9.45m
RS  40  3  1.55m
RG  20  2  21.7
CGS  2  3  633p
EGD 12  0  2  1  1
VFB 14  0  0
FFB  2  1  VFB  1
CGD 13 14  843p
R1  13  0  1.00
D1  12 13  DLIM
DDG 15 14  DCGD
R2  12 15  1.00
D2  15  0  DLIM
DSD  3 10  DSUB
LS  30 40  7.50n
.MODEL DMOS NMOS(LEVEL=3 VMAX=62.5k THETA=60.0m
+ ETA=2.00m VTO=3.00 KP=13.5)
.MODEL DCGD D (CJO=843p VJ=0.600 M=0.680)
.MODEL DSUB D (IS=28.6n N=1.50 RS=65.2m BV=30.0
+ CJO=200p VJ=0.800 M=0.420 TT=252n)
.MODEL DLIM D (IS=100U)
.ENDS


*SRC=DMN3051L;DI_DMN3051L;MOSFETs N;Enh;30.0V 5.80A 38.0mohms  Diodes Inc MOSFET
*SYM=POWMOSN
.SUBCKT DI_DMN3051L   10 20 30
*     TERMINALS:  D  G  S
M1   1  2  3  3  DMOS L=1U W=1U
RD  10  1  17.0m
RS  40  3  1.95m
RG  20  2  47.0
CGS  2  3  343p
EGD 12  0  2  1  1
VFB 14  0  0
FFB  2  1  VFB  1
CGD 13 14  370p
R1  13  0  1.00
D1  12 13  DLIM
DDG 15 14  DCGD
R2  12 15  1.00
D2  15  0  DLIM
DSD  3 10  DSUB
LS  30 40  7.50n
.MODEL DMOS NMOS(LEVEL=3 VMAX=62.5k THETA=80.0m
+ ETA=2.00m VTO=2.20 KP=15.6)
.MODEL DCGD D (CJO=370p VJ=0.600 M=0.680)
.MODEL DSUB D (IS=24.1n N=1.50 RS=70.7m BV=30.0
+ CJO=132p VJ=0.800 M=0.420 TT=239n)
.MODEL DLIM D (IS=100U)
.ENDS


*---------- DMT3004LFG Spice Model ----------
.SUBCKT DMT3004LFG 10 20 30 
*     TERMINALS:  D  G  S
M1 1 2 3 3 NMOS L = 1E-006 W = 1E-006 
RD 10 1 0.001 
RS 30 3 0.001 
RG 20 2 1 
CGS 2 3 2.049E-009 
EGD 12 0 2 1 1 
VFB 14 0 0 
FFB 2 1 VFB 1 
CGD 13 14 1.8E-009 
R1 13 0 1 
D1 12 13 DLIM 
DDG 15 14 DCGD 
R2 12 15 1 
D2 15 0 DLIM 
DSD 3 10 DSUB 
.MODEL NMOS NMOS LEVEL = 3 VMAX = 5.378E+005 ETA = 0.001 VTO = 2.164 
+ TOX = 6E-008 NSUB = 1E+016 KP = 135.6 U0 = 400 KAPPA = 10 
.MODEL DCGD D CJO = 9.486E-010 VJ = 2.289 M = 0.7048 
.MODEL DSUB D IS = 2.321E-010 N = 1.181 RS = 0.0003474 BV = 30 CJO = 1.937E-009 VJ = 0.8 M = 0.6 
.MODEL DLIM D IS = 0.0001 
.ENDS
*Diodes DMT3004LFG Spice Model v1.0M Last Revised 2016/6/29


*---------- DMN3020UFDF Spice Model ----------
.SUBCKT DMN3020UFDF 10 20 30 
*     TERMINALS:  D  G  S
M1 1 2 3 3 NMOS L = 1E-006 W = 1E-006 
RD 10 1 0.01197 
RS 30 3 0.001 
RG 20 2 1.27 
CGS 2 3 1.239E-009 
EGD 12 0 2 1 1 
VFB 14 0 0 
FFB 2 1 VFB 1 
CGD 13 14 1.85E-009 
R1 13 0 1 
D1 12 13 DLIM 
DDG 15 14 DCGD 
R2 12 15 1 
D2 15 0 DLIM 
DSD 3 10 DSUB 
.MODEL NMOS NMOS LEVEL = 3 VMAX = 5.378E+005 ETA = 0.001 VTO = 0.9495 
+ TOX = 6E-008 NSUB = 1E+016 KP = 109.4 U0 = 400 KAPPA = 10 
.MODEL DCGD D CJO = 5.31E-010 VJ = 0.6 M = 0.6 
.MODEL DSUB D IS = 1.004E-008 N = 1.226 RS = 0.01837 BV = 35.5 CJO = 2.226E-010 VJ = 0.7186 M = 0.6022 TT = 3.5E-009 
.MODEL DLIM D IS = 0.0001 
.ENDS
*Diodes DMN3020UFDF Spice Model v1.0M Last Revised 2016/7/19



*---------- DMT3002LPS Spice Model ----------
.SUBCKT DMT3002LPS 10 20 30 
*     TERMINALS:  D  G  S
M1 1 2 3 3 NMOS L = 1E-006 W = 1E-006 
RD 10 1 0.0001 
RS 30 3 0.001 
RG 20 2 1.04 
CGS 2 3 4.937E-009 
EGD 12 0 2 1 1 
VFB 14 0 0 
FFB 2 1 VFB 1 
CGD 13 14 2E-009 
R1 13 0 1 
D1 12 13 DLIM 
DDG 15 14 DCGD 
R2 12 15 1 
D2 15 0 DLIM 
DSD 3 10 DSUB 
.MODEL NMOS NMOS LEVEL = 3 VMAX = 5.378E+005 ETA = 0.001 VTO = 1.99 
+ TOX = 6E-008 NSUB = 1E+016 KP = 268.9 U0 = 400 KAPPA = 10 
.MODEL DCGD D CJO = 1.2E-009 VJ = 0.8 M = 0.6 
.MODEL DSUB D IS = 2.244E-010 N = 1.155 RS = 0.0008535 BV = 30 CJO = 5E-009 VJ = 0.8 M = 0.6 
.MODEL DLIM D IS = 0.0001 
.ENDS
*Diodes DMT3002LPS Spice Model v1.0M Last Revised 2016/2/4


*---------- DMN3055LFDB Spice Model ----------
.SUBCKT DMN3055LFDB 10 20 30 
*     TERMINALS:  D  G  S
M1 1 2 3 3 NMOS L = 1E-006 W = 1E-006 
RD 10 1 0.01938 
RS 30 3 0.001 
RG 20 2 2.05 
CGS 2 3 4.156E-010 
EGD 12 0 2 1 1 
VFB 14 0 0 
FFB 2 1 VFB 1 
CGD 13 14 5.7E-010 
R1 13 0 1 
D1 12 13 DLIM 
DDG 15 14 DCGD 
R2 12 15 1 
D2 15 0 DLIM 
DSD 3 10 DSUB 
.MODEL NMOS NMOS LEVEL = 3 VMAX = 5.378E+005 ETA = 0.001 VTO = 1.394 
+ TOX = 6E-008 NSUB = 1E+016 KP = 32.82 U0 = 400 KAPPA = 10 
.MODEL DCGD D CJO = 3.123E-010 VJ = 0.6 M = 0.6 
.MODEL DSUB D IS = 2.225E-010 N = 1.229 RS = 0.02329 BV = 35 CJO = 2.22E-010 VJ = 0.6 M = 0.6211 
.MODEL DLIM D IS = 0.0001 
.ENDS
*Diodes DMN3055LFDB Spice Model v1.0M Last Revised 2016/5/9


*---------- DMTH3003LFG Spice Model ----------
.SUBCKT DMTH3003LFG 10 20 30 
*     TERMINALS:  D  G  S
M1 1 2 3 3 NMOS L = 1E-006 W = 1E-006 
RD 10 1 0.001 
RS 30 3 0.001 
RG 20 2 1 
CGS 2 3 2.049E-009 
EGD 12 0 2 1 1 
VFB 14 0 0 
FFB 2 1 VFB 1 
CGD 13 14 1.8E-009 
R1 13 0 1 
D1 12 13 DLIM 
DDG 15 14 DCGD 
R2 12 15 1 
D2 15 0 DLIM 
DSD 3 10 DSUB 
.MODEL NMOS NMOS LEVEL = 3 VMAX = 5.378E+005 ETA = 0.001 VTO = 2.164 
+ TOX = 6E-008 NSUB = 1E+016 KP = 135.6 U0 = 400 KAPPA = 10 
.MODEL DCGD D CJO = 9.486E-010 VJ = 2.289 M = 0.7048 
.MODEL DSUB D IS = 2.321E-010 N = 1.181 RS = 0.0003474 BV = 30 CJO = 1.937E-009 VJ = 0.8 M = 0.6 
.MODEL DLIM D IS = 0.0001 
.ENDS
*Diodes DMTH3003LFG Spice Model v1.0M Last Revised 2016/6/29


*---------- DMTH3002LPS Spice Model ----------
.SUBCKT DMTH3002LPS 10 20 30 
*     TERMINALS:  D  G  S
M1 1 2 3 3 NMOS L = 1E-006 W = 1E-006 
RD 10 1 0.0001 
RS 30 3 0.001 
RG 20 2 1.04 
CGS 2 3 4.937E-009 
EGD 12 0 2 1 1 
VFB 14 0 0 
FFB 2 1 VFB 1 
CGD 13 14 2E-009 
R1 13 0 1 
D1 12 13 DLIM 
DDG 15 14 DCGD 
R2 12 15 1 
D2 15 0 DLIM 
DSD 3 10 DSUB 
.MODEL NMOS NMOS LEVEL = 3 VMAX = 5.378E+005 ETA = 0.001 VTO = 1.99 
+ TOX = 6E-008 NSUB = 1E+016 KP = 268.9 U0 = 400 KAPPA = 10 
.MODEL DCGD D CJO = 1.2E-009 VJ = 0.8 M = 0.6 
.MODEL DSUB D IS = 2.244E-010 N = 1.155 RS = 0.0008535 BV = 30 CJO = 5E-009 VJ = 0.8 M = 0.6 
.MODEL DLIM D IS = 0.0001 
.ENDS
*Diodes DMTH3002LPS Spice Model v1.0M Last Revised 2016/2/4



*---------- DMN3016LFDF Spice Model ----------
.SUBCKT DMN3016LFDF 10 20 30 
*     TERMINALS:  D  G  S
M1 1 2 3 3  NMOS  L = 1E-006  W = 1E-006 
RD 10 1 0.007363 
RS 30 3 0.001 
RG 20 2 2.94 
CGS 2 3 1.344E-009 
EGD 12 0 2 1 1 
VFB 14 0 0 
FFB 2 1  VFB 1 
CGD 13 14 9.9E-010 
R1 13 0 1 
D1 12 13  DLIM 
DDG 15 14  DCGD 
R2 12 15 1 
D2 15 0  DLIM 
DSD 3 10  DSUB 
.MODEL NMOS NMOS  LEVEL = 3  VMAX = 8E+005  ETA = 0.001  VTO = 2.213 
+ TOX = 6E-008  NSUB = 1E+016  KP = 176.5  U0 = 400  KAPPA = 4.441E-010 
.MODEL DCGD D  CJO = 4.27E-010  VJ = 0.7983  M = 0.6 
.MODEL DSUB D  IS = 8.592E-011  N = 1.184  RS = 0.003043  BV = 50  CJO = 3.379E-010  VJ = 0.6  M = 0.6 
.MODEL DLIM D  IS = 0.0001 
.ENDS
*Diodes DMN3016LFDF  Spice Model v1.0 Last Revised 2015/6/16



*---------- DMN3025LFDF Spice Model ----------
.SUBCKT DMN3025LFDF 10 20 30 
*     TERMINALS:  D  G  S
M1 1 2 3 3  NMOS  L = 1E-006  W = 1E-006 
RD 10 1 0.0121 
RS 30 3 0.001 
RG 20 2 2.45 
CGS 2 3 5.929E-010 
EGD 12 0 2 1 1 
VFB 14 0 0 
FFB 2 1  VFB 1 
CGD 13 14 6.45E-010 
R1 13 0 1 
D1 12 13  DLIM 
DDG 15 14  DCGD 
R2 12 15 1 
D2 15 0  DLIM 
DSD 3 10  DSUB 
.MODEL NMOS NMOS  LEVEL = 3  VMAX = 8E+005  ETA = 0.001  VTO = 1.863 
+ TOX = 6E-008  NSUB = 1E+016  KP = 52  U0 = 400  KAPPA = 4.441E-010 
.MODEL DCGD D  CJO = 3.069E-010  VJ = 0.7  M = 0.65 
.MODEL DSUB D  IS = 1.511E-011  N = 1.099  RS = 0.01954  BV = 45  CJO = 2.221E-010  VJ = 0.6319  M = 0.7672 
.MODEL DLIM D  IS = 0.0001 
.ENDS
*Diodes DMN3025LFDF Spice Model v1.0 Last Revised 2015/1/30



*---------- DMN3042LFDF Spice Model ----------
.SUBCKT DMN3042LFDF 10 20 30 
*     TERMINALS:  D  G  S
M1 1 2 3 3 NMOS L = 1E-006 W = 1E-006 
RD 10 1 0.01631 
RS 30 3 0.001 
RG 20 2 3.19 
CGS 2 3 5.244E-010 
EGD 12 0 2 1 1 
VFB 14 0 0 
FFB 2 1 VFB 1 
CGD 13 14 6.7E-010 
R1 13 0 1 
D1 12 13 DLIM 
DDG 15 14 DCGD 
R2 12 15 1 
D2 15 0 DLIM 
DSD 3 10 DSUB 
.MODEL NMOS NMOS LEVEL = 3 VMAX = 5.378E+005 ETA = 0.001 VTO = 1.053 
+ TOX = 6E-008 NSUB = 1E+016 KP = 44.07 U0 = 400 KAPPA = 10 
.MODEL DCGD D CJO = 3.121E-010 VJ = 0.7018 M = 0.6 
.MODEL DSUB D IS = 1.011E-009 N = 1.157 RS = 0.0244 BV = 36 CJO = 2.1E-010 VJ = 0.7682 M = 0.6 TT=3.9E-09
.MODEL DLIM D IS = 0.0001 
.ENDS
*Diodes DMN3042LFDF Spice Model v1.0M Last Revised 2016/8/29


*---------- DMT3020LFCL Spice Model ----------
.SUBCKT DMT3020LFCL 10 20 30 
*     TERMINALS:  D  G  S
M1 1 2 3 3 NMOS L = 1E-006 W = 1E-006 
RD 10 1 0.006049 
RS 30 3 0.001 
RG 20 2 1.08 
CGS 2 3 3.632E-010 
EGD 12 0 2 1 1 
VFB 14 0 0 
FFB 2 1 VFB 1 
CGD 13 14 2.7E-010 
R1 13 0 1 
D1 12 13 DLIM 
DDG 15 14 DCGD 
R2 12 15 1 
D2 15 0 DLIM 
DSD 3 10 DSUB 
.MODEL NMOS NMOS LEVEL = 3 VMAX = 5.378E+005 ETA = 0.001 VTO = 1.641 TOX = 6E-008 NSUB = 1E+016 KP = 18.96 U0 = 400 KAPPA = 10 
.MODEL DCGD D CJO = 1.731E-010 VJ = 0.8 M = 0.6441 
.MODEL DSUB D IS = 1.009E-009 N = 1.296 RS = 0.01293 BV = 37.6 CJO = 5.543E-010 VJ = 0.8 M = 0.6 
.MODEL DLIM D IS = 0.0001 
.ENDS
*Diodes DMT3020LFCL Spice Model v1.0M Last Revised 2016/7/14


*---------- DMT31M6LPS Spice Model ----------
.SUBCKT DMT31M6LPS 10 20 30 
*     TERMINALS:  D  G  S
M1 1 2 3 3 NMOS L = 1E-006 W = 1E-006 
RD 10 1 1E-009 
RS 30 3 0.001 
RG 20 2 0.94 
CGS 2 3 7.102E-009 
EGD 12 0 2 1 1 
VFB 14 0 0 
FFB 2 1 VFB 1 
CGD 13 14 3.8E-009 
R1 13 0 1 
D1 12 13 DLIM 
DDG 15 14 DCGD 
R2 12 15 1 
D2 15 0 DLIM 
DSD 3 10 DSUB 
.MODEL NMOS NMOS LEVEL = 3 VMAX = 5.378E+005 ETA = 0.001 VTO = 2.071 
+ TOX = 6E-008 NSUB = 1E+016 KP = 381.1 U0 = 400 KAPPA = 10 
.MODEL DCGD D CJO = 3E-009 VJ = 0.8 M = 0.7165 
.MODEL DSUB D IS = 2.338E-010 N = 1.114 RS = 0.00242 BV = 34 CJO = 5E-009 VJ = 0.8 M = 0.6 
.MODEL DLIM D IS = 0.0001 
.ENDS
*Diodes DMT31M6LPS Spice Model v1.0M Last Revised 2016/8/31


*---------- ZXMN3A14FTA Spice Model ----------
.SUBCKT ZXMN3A14FQTA 10 20 30 
*     TERMINALS:  D  G  S
M1 1 2 3 3 NMOS L = 1E-006 W = 1E-006 
RD 10 1 0.02679 
RS 30 3 0.001 
RG 20 2 1.23 
CGS 2 3 3.56E-010 
EGD 12 0 2 1 1 
VFB 14 0 0 
FFB 2 1 VFB 1 
CGD 13 14 4.2E-010 
R1 13 0 1 
D1 12 13 DLIM 
DDG 15 14 DCGD 
R2 12 15 1 
D2 15 0 DLIM 
DSD 3 10 DSUB 
.MODEL NMOS NMOS LEVEL = 3 VMAX = 5.378E+005 ETA = 0.001 VTO = 1.548 
+ TOX = 6E-008 NSUB = 1E+016 KP = 9.886 U0 = 400 KAPPA = 10 
.MODEL DCGD D CJO = 2.613E-010 VJ = 0.8 M = 0.6 
.MODEL DSUB D IS = 1.518E-009 N = 1.343 RS = 0.04565 BV = 35 CJO = 2.328E-010 VJ = 0.8 M = 0.6  
.MODEL DLIM D IS = 0.0001 
.ENDS
*Diodes ZXMN3A14FQTA Spice Model v1.0M Last Revised 2016/9/13



*---------- DMN3016LDV Spice Model ----------

.SUBCKT DMN3016LDV 10 20 30 
*     TERMINALS:  D  G  S
M1 1 2 3 3 NMOS L = 1E-006 W = 1E-006 
RD 10 1 0.007058 
RS 30 3 0.001 
RG 20 2 2.94 
CGS 2 3 1.348E-009 
EGD 12 0 2 1 1 
VFB 14 0 0 
FFB 2 1 VFB 1 
CGD 13 14 1E-009 
R1 13 0 1 
D1 12 13 DLIM 
DDG 15 14 DCGD 
R2 12 15 1 
D2 15 0 DLIM 
DSD 3 10 DSUB 
.MODEL NMOS NMOS LEVEL = 3 VMAX = 8E+005 ETA = 0.001 VTO = 2.222 
+ TOX = 6E-008 NSUB = 1E+016 KP = 121.1 U0 = 400 KAPPA = 1E-015 
.MODEL DCGD D CJO = 3.779E-010 VJ = 0.6 M = 0.4637 
.MODEL DSUB D IS = 2.322E-010 N = 1.242 RS = 0.002024 BV = 45 CJO = 1.63E-010 VJ = 0.7 M = 0.6 
.MODEL DLIM D IS = 0.0001 
.ENDS

*Diodes DMN3016LDV Spice Model v1.0M Last Revised 2016/9/7



*---------- DMN3021LFDF Spice Model ----------
.SUBCKT DMN3021LFDF 10 20 30 
*     TERMINALS:  D  G  S
M1 1 2 3 3 NMOS L = 1E-006 W = 1E-006 
RD 10 1 0.007356 
RS 30 3 0.001 
RG 20 2 2.75 
CGS 2 3 6.551E-010 
EGD 12 0 2 1 1 
VFB 14 0 0 
FFB 2 1 VFB 1 
CGD 13 14 4.4E-010 
R1 13 0 1 
D1 12 13 DLIM 
DDG 15 14 DCGD 
R2 12 15 1 
D2 15 0 DLIM 
DSD 3 10 DSUB 
.MODEL NMOS NMOS LEVEL = 3 VMAX = 5.378E+005 ETA = 0.001 VTO = 1.915 
+ TOX = 6E-008 NSUB = 1E+016 KP = 48.83 U0 = 400 KAPPA = 10 
.MODEL DCGD D CJO = 3.203E-010 VJ = 0.8 M = 0.6 
.MODEL DSUB D IS = 2.259E-010 N = 1.266 RS = 0.00556 BV = 34 CJO = 2.269E-010 VJ = 0.8 M = 0.6 
.MODEL DLIM D IS = 0.0001 
.ENDS
*Diodes DMN3021LFDF Spice Model v1.0M Last Revised 2016/8/29


*SRC=DMN3150LW;DI_DMN3150LW;MOSFETs N;Enh;28.0V 1.60A 88.0mohms  Diodes Inc MOSFET
*SYM=POWMOSN
.SUBCKT DI_DMN3150LW   10 20 30
*     TERMINALS:  D  G  S
M1   1  2  3  3  DMOS L=1U W=1U
RD  10  1  40.8m
RS  40  3  3.20m
RG  20  2  93.7
CGS  2  3  257p
EGD 12  0  2  1  1
VFB 14  0  0
FFB  2  1  VFB  1
CGD 13 14  219p
R1  13  0  1.00
D1  12 13  DLIM
DDG 15 14  DCGD
R2  12 15  1.00
D2  15  0  DLIM
DSD  3 10  DSUB
LS  30 40  7.50n
.MODEL DMOS NMOS(LEVEL=3 VMAX=58.3k THETA=80.0m
+ ETA=2.00m VTO=1.40 KP=21.8)
.MODEL DCGD D (CJO=219p VJ=0.600 M=0.680)
.MODEL DSUB D (IS=6.64n N=1.50 RS=0.256 BV=28.0
+ CJO=85.0p VJ=0.800 M=0.420 TT=162n)
.MODEL DLIM D (IS=100U)
.ENDS


*SRC=DMN2009LSS;DI_DMN2009LSS;MOSFETs N;Enh;20.0V 12.0A 8.00mohms  Diodes Inc. MOSFET
*SYM=POWMOSN
.SUBCKT DI_DMN2009LSS   10 20 30
*     TERMINALS:  D  G  S
M1   1  2  3  3  DMOS L=1U W=1U
RD  10  1  2.80m
RS  40  3  1.20m
RG  20  2  12.5
CGS  2  3  2.46n
EGD 12  0  2  1  1
VFB 14  0  0
FFB  2  1  VFB  1
CGD 13 14  663p
R1  13  0  1.00
D1  12 13  DLIM
DDG 15 14  DCGD
R2  12 15  1.00
D2  15  0  DLIM
DSD  3 10  DSUB
LS  30 40  7.50n
.MODEL DMOS NMOS(LEVEL=3 VMAX=41.7k THETA=60.0m
+ ETA=2.00m VTO=3.00 KP=274)
.MODEL DCGD D (CJO=663p VJ=0.600 M=0.680)
.MODEL DSUB D (IS=49.8n N=1.50 RS=37.5m BV=20.0
+ CJO=1.28n VJ=0.800 M=0.420 TT=297n)
.MODEL DLIM D (IS=100U)
.ENDS


*SYM=POWMOSN
.SUBCKT DMN2020LSN   10 20 30
*     TERMINALS:  D  G  S
M1   1  2  3  3  NMOS L=0.6U W=1943.229m
RD  10  1  5m
RS  30  3  4m
RG  20  2  1.5
CGS  2  3  952p
EGD 12  0  2  1  1
VFB 14  0  0
FFB  2  1  VFB  1
CGD 13 14  550p
R1  13  0  1.00
D1  12 13  DLIM
DDG 15 14  DCGD
R2  12 15  1.00
D2  15  0  DLIM
DSD  3 10  DSUB
.MODEL NMOS NMOS LEVEL=3 U0=500 VMAX=80k
+ ETA=0.1m VTO=1.525 TOX=25n NSUB=5.3e16
.MODEL DCGD D CJO=550p VJ=0.350 M=0.410
.MODEL DSUB D IS=36.1n N=1.50 RS=21.8m BV=20
+ CJO=116p VJ=0.120 M=0.380
.MODEL DLIM D IS=100U
.ENDS


*ZETEX ZXMN2A02N8 Spice Model v2.0 Last Revised 22/2/05
    *
    .SUBCKT ZXMN2A02N8 30 40 50
    *---connections---D-G-S
    M1 6 2 7 7 Nmod L=1.16E-6 W=2.3
    M2 7 2 7 6 Pmod L=1.3E-6 W=1.3
    RG 4 2 1
    RIN 2 5 1E12
    RD 3 6 Rdmod 0.0045
    RS 7 5 Rdmod 0.01
    RL 3 5 3E9
    C1 2 5 10E-12
    C2 3 2 5E-12
    D1 5 3  Dbodymod
    LD 3 30 1.3E-9
    LG 4 40 1.2E-9
    LS 5 50 1.2E-9
    .MODEL Nmod NMOS (LEVEL=3 TOX=4.5E-8 NSUB=10E16
    +VTO=1.365 KP=3.6E-5 NFS=2E11 KAPPA=0.1 UO=650 IS=1E-15 N=10)
    .MODEL Pmod PMOS (LEVEL=3 TOX=4.5E-8 NSUB=1.5E16
    +TPG=-1 IS=1E-15 N=10)
    .MODEL Dbodymod D (IS=2E-11 RS=.015 XTI=1.5 TRS1=1.5e-3 TT=7e-9
    +CJO=450e-12 BV=22)
    .MODEL Rdmod RES (TC1=3e-3 TC2=6E-6)
    .ENDS
    *
    *$
    *


*---------- DMG8601UFG Spice Model ----------
.SUBCKT DMG8601UFG 10 20 30 
*     TERMINALS:  D  G  S
M1 1 2 3 3  NMOS  L = 1E-006  W = 1E-006 
RD 10 1 0.01441 
RS 30 3 0.001 
RG 20 2 202.6 
CGS 2 3 1.466E-010 
EGD 12 0 2 1 1 
VFB 14 0 0 
FFB 2 1  VFB 1 
CGD 13 14 1E-009 
R1 13 30 1 
D1 12 13  DLIM 
DDG 15 14  DCGD 
R2 12 15 1 
D2 15 0  DLIM 
DSD 3 10  DSUB 
.MODEL NMOS NMOS  LEVEL = 3  VMAX = 1.361E+005  ETA = 0.001  VTO = 0.8913 
+ TOX = 6E-008  NSUB = 1E+016  KP = 97.33  KAPPA = 1  U0 = 400 
.MODEL DCGD D  CJO = 2.802E-010  VJ = 0.2313  M = 0.4878 
.MODEL DSUB D  IS = 2.098E-009  N = 1.133  RS = 0.02894  BV = 25  CJO = 2.541E-010  VJ = 0.1292  M = 0.32 
.MODEL DLIM D  IS = 0.0001 
.ENDS
*Diodes DMG8601UFG Spice Model v1.0 Last Revised 2011/5/5


*---------- DMG6968UTS Spice Model ----------
.SUBCKT DMG6968UTS 10 20 30 
*     TERMINALS:  D  G  S
M1 1 2 3 3  NMOS  L = 1E-006  W = 1E-006 
RD 10 1 0.01441 
RS 30 3 0.001 
RG 20 2 202.6 
CGS 2 3 1.466E-010 
EGD 12 0 2 1 1 
VFB 14 0 0 
FFB 2 1  VFB 1 
CGD 13 14 1E-009 
R1 13 30 1 
D1 12 13  DLIM 
DDG 15 14  DCGD 
R2 12 15 1 
D2 15 0  DLIM 
DSD 3 10  DSUB 
.MODEL NMOS NMOS  LEVEL = 3  VMAX = 1.361E+005  ETA = 0.001  VTO = 0.8913 
+ TOX = 6E-008  NSUB = 1E+016  KP = 97.33  KAPPA = 1  U0 = 400 
.MODEL DCGD D  CJO = 2.802E-010  VJ = 0.2313  M = 0.4878 
.MODEL DSUB D  IS = 2.098E-009  N = 1.133  RS = 0.02894  BV = 25  CJO = 2.541E-010  VJ = 0.1292  M = 0.32 
.MODEL DLIM D  IS = 0.0001 
.ENDS
*Diodes DMG6968UTS Spice Model v1.0 Last Revised 2011/5/5


*SRC=DMG6968UDM;DI_DMG6968UDM;MOSFETs N;Enh;20.0V 6.50A 25.0mohms  Diodes Inc MOSFET
*SYM=POWMOSN
.SUBCKT DI_DMG6968UDM   10 20 30
*     TERMINALS:  D  G  S
M1   1  2  3  3  DMOS L=1U W=1U
RD  10  1  10.9m
RS  40  3  1.62m
RG  20  2  40.7
CGS  2  3  114p
EGD 12  0  2  1  1
VFB 14  0  0
FFB  2  1  VFB  1
CGD 13 14  204p
R1  13  0  1.00
D1  12 13  DLIM
DDG 15 14  DCGD
R2  12 15  1.00
D2  15  0  DLIM
DSD  3 10  DSUB
LS  30 40  7.50n
.MODEL DMOS NMOS(LEVEL=3 VMAX=41.7k THETA=80.0m
+ ETA=2.00m VTO=0.900 KP=31.8)
.MODEL DCGD D (CJO=204p VJ=0.600 M=0.680)
.MODEL DSUB D (IS=27.0n N=1.50 RS=55.4m BV=20.0
+ CJO=134p VJ=0.800 M=0.420 TT=247n)
.MODEL DLIM D (IS=100U)
.ENDS


*SYM=POWMOSN
.SUBCKT DMG9926USD   10 20 30
*     TERMINALS:  D  G  S
M1   1  2  3  3  NMOS L=0.6U W=0.8625
RD  10  1  16m
RS  30  3  4m
RG  20  2  1.5
CGS  2  3  872p
EGD 12  0  2  1  1
VFB 14  0  0
FFB  2  1  VFB  1
CGD 13 14  408p
R1  13  0  1.00
D1  12 13  DLIM
DDG 15 14  DCGD
R2  12 15  1.00
D2  15  0  DLIM
DSD  3 10  DSUB
*********************************************
.MODEL NMOS NMOS LEVEL=3 U0=500 VMAX=80k
+ ETA=0.1m VTO=1.0 TOX=16.8n NSUB=5.36e16
*********************************************
.MODEL DCGD D CJO=448p VJ=0.450 M=0.550
*********************************************
.MODEL DSUB D IS=36.1n N=1.50 RS=21.8m BV=20
+ CJO=28p VJ=0.800 M=0.420
*********************************************
.MODEL DLIM D IS=100U
*********************************************
.ENDS


*---------- DMG3414U Spice Model ----------
.SUBCKT DMG3414U 10 20 30 
*     TERMINALS:  D  G  S
M1 1 2 3 3  NMOS  L = 1E-006  W = 1E-006 
RD 10 1 0.01338 
RS 30 3 1E-003
RG 20 2 18 
CGS 2 3 7.702E-010 
EGD 12 0 2 1 1 
VFB 14 0 0 
FFB 2 1  VFB 1 
CGD 13 14 1.1E-009 
R1 13 0 1 
D1 12 13  DLIM 
DDG 15 14  DCGD 
R2 12 15 1 
D2 15 0  DLIM 
DSD 3 10  DSUB 
.MODEL NMOS NMOS  LEVEL = 3  VMAX = 1E+006  ETA = 5.027E-008  VTO = 0.8394  
+ TOX = 6E-008  NSUB = 1E+016  KP = 46.34  KAPPA = 1E-015  U0 = 400 
.MODEL DCGD D  CJO = 4.457E-010  VJ = 0.2472  M = 0.4558 
.MODEL DSUB D  IS = 4.271E-010  N = 1.076  RS = 0.05217  BV = 25  CJO = 3.405E-011  VJ = 0.2561  M = 0.4362 
.MODEL DLIM D  IS = 0.0001 
.ENDS
*Diodes DMG3414U Spice Model v1.0 Last Revised 2011/7/7


*SRC=DMG6968U;DI_DMG6968U;MOSFETs N;Enh;20.0V 6.50A 25.0mohms  Diodes Inc MOSFET
*SYM=POWMOSN
.SUBCKT DI_DMG6968U   10 20 30
*     TERMINALS:  D  G  S
M1   1  2  3  3  DMOS L=1U W=1U
RD  10  1  10.9m
RS  40  3  1.62m
RG  20  2  33.7
CGS  2  3  119p
EGD 12  0  2  1  1
VFB 14  0  0
FFB  2  1  VFB  1
CGD 13 14  226p
R1  13  0  1.00
D1  12 13  DLIM
DDG 15 14  DCGD
R2  12 15  1.00
D2  15  0  DLIM
DSD  3 10  DSUB
LS  30 40  7.50n
.MODEL DMOS NMOS(LEVEL=3 VMAX=41.7k THETA=80.0m
+ ETA=2.00m VTO=0.900 KP=31.8)
.MODEL DCGD D (CJO=226p VJ=0.600 M=0.680)
.MODEL DSUB D (IS=27.0n N=1.50 RS=55.4m BV=20.0
+ CJO=176p VJ=0.800 M=0.420 TT=247n)
.MODEL DLIM D (IS=100U)
.ENDS


*SYM=POWMOSN
.SUBCKT DMN2075   10 20 30
*     TERMINALS:  D  G  S
M1   1  2  3  3  NMOS L=0.6U W=0.8625
RD  10  1  16m
RS  30  3  4m
RG  20  2  1.24
CGS  2  3  872p
EGD 12  0  2  1  1
VFB 14  0  0
FFB  2  1  VFB  1
CGD 13 14  408p
R1  13  0  1.00
D1  12 13  DLIM
DDG 15 14  DCGD
R2  12 15  1.00
D2  15  0  DLIM
DSD  3 10  DSUB
.MODEL NMOS NMOS LEVEL=3 U0=500 VMAX=80k
+ ETA=0.1m VTO=1.0 TOX=16.8n NSUB=5.36e16
.MODEL DCGD D CJO=448p VJ=0.450 M=0.550
.MODEL DSUB D IS=36.1n N=1.50 RS=21.8m BV=25.0
+ CJO=28p VJ=0.800 M=0.420
.MODEL DLIM D IS=100U
.ENDS


*SYM=POWMOSN
.SUBCKT DMG9926UDM   10 20 30
*     TERMINALS:  D  G  S
M1   1  2  3  3  NMOS L=0.6U W=0.8625
RD  10  1  16m
RS  30  3  4m
RG  20  2  1.5
CGS  2  3  872p
EGD 12  0  2  1  1
VFB 14  0  0
FFB  2  1  VFB  1
CGD 13 14  408p
R1  13  0  1.00
D1  12 13  DLIM
DDG 15 14  DCGD
R2  12 15  1.00
D2  15  0  DLIM
DSD  3 10  DSUB
*********************************************
.MODEL NMOS NMOS LEVEL=3 U0=500 VMAX=80k
+ ETA=0.1m VTO=1.0 TOX=16.8n NSUB=5.36e16
*********************************************
.MODEL DCGD D CJO=448p VJ=0.450 M=0.550
*********************************************
.MODEL DSUB D IS=36.1n N=1.50 RS=21.8m BV=20
+ CJO=28p VJ=0.800 M=0.420
*********************************************
.MODEL DLIM D IS=100U
*********************************************
.ENDS


*---------- DMN2041LSD Spice Model ----------
.SUBCKT DMN2041LSD 10 20 30 
*     TERMINALS:  D  G  S