*SRC=BAW156;DI_BAW156;Diodes;Si;  85.0V  0.160A  3.00us   Diodes, Inc. diode
.MODEL BAW156 D  ( IS=59.0p RS=0.262 BV=85.0 IBV=5.00n
+ CJO=2.00p  M=0.333 N=1.78 TT=4.32u )

*SRC=1N5711W;DI_1N5711W;Diodes;Si;  70.0V  15.0mA  1.00ns   Diodes Inc. -
.MODEL 1N5711W D  ( IS=315n RS=2.80 BV=70.0 IBV=10.0u
+ CJO=2.00p  M=0.333 N=2.03 TT=1.44n )

*SRC=1N5711WS;DI_1N5711WS;Diodes;Si;  70.0V  15.0mA  1.00ns   Diodes Inc. 
.MODEL 1N5711WS D  ( IS=315n RS=2.80 BV=70.0 IBV=10.0u
+ CJO=2.00p  M=0.333 N=2.03 TT=1.44n )

*SRC=1N6263W;DI_1N6263W;Diodes;Si;  60.0V  15.0mA  1.00ns   Diodes Inc. Schottky 
.MODEL 1N6263W D  ( IS=1.82u RS=2.80 BV=60.0 IBV=200n 
+ CJO=2.65p  M=0.333 N=1.70 TT=1.44n )

*SRC=BAS40-04T;DI_BAS40-04T;Diodes;Si;  40.0V  0.200A  5.00ns   Diodes Inc. Schottky diode, dual, one node of two 
.MODEL BAS40-04T D  ( IS=6.12u RS=0.120 BV=40.0 IBV=200n 
+ CJO=5.00p  M=0.333 N=2.61 TT=7.20n )

*SRC=BAS40-05T;DI_BAS40-05T;Diodes;Si;  40.0V  0.200A  5.00ns   Diodes Inc. Schottky diode, dual, one node of two 
.MODEL BAS40-05T D  ( IS=6.12u RS=0.120 BV=40.0 IBV=200n 
+ CJO=5.00p  M=0.333 N=2.61 TT=7.20n )

*SRC=BAS40-06T;DI_BAS40-06T;Diodes;Si;  40.0V  0.200A  5.00ns   Diodes Inc. Schottky diode, dual, one node of two 
.MODEL BAS40-06T D  ( IS=6.12u RS=0.120 BV=40.0 IBV=200n 
+ CJO=5.00p  M=0.333 N=2.61 TT=7.20n )

*SRC=BAS40BRW;DI_BAS40BRW;Diodes;Si;  40.0V  0.200A  5.00ns   Diodes Inc. Schottky diode, Quad, one node of four
.MODEL BAS40BRW D  ( IS=6.12u RS=0.120 BV=40.0 IBV=200n 
+ CJO=5.00p  M=0.333 N=2.61 TT=7.20n )

*SRC=BAS40DW-04;DI_BAS40DW-04;Diodes;Si;  40.0V  0.200A  5.00ns   Diodes Inc. Schottky diode, Quad, one node of four
.MODEL BAS40DW-04 D  ( IS=6.12u RS=0.120 BV=40.0 IBV=200n 
+ CJO=5.00p  M=0.333 N=2.61 TT=7.20n )

*SRC=BAS40DW-06;DI_BAS40DW-06;Diodes;Si;  40.0V  0.200A  5.00ns   Diodes Inc. Schottky diode, Quad, one node of four
.MODEL BAS40DW-06 D  ( IS=6.12u RS=0.120 BV=40.0 IBV=200n 
+ CJO=5.00p  M=0.333 N=2.61 TT=7.20n )

*SRC=BAS40DW-05;DI_BAS40DW-05;Diodes;Si;  40.0V  0.200A  5.00ns   Diodes Inc. Schottky diode, Quad, one node of four
.MODEL BAS40DW-05 D  ( IS=6.12u RS=0.120 BV=40.0 IBV=200n 
+ CJO=5.00p  M=0.333 N=2.61 TT=7.20n )

*SRC=BAS40LP;DI_BAS40LP;Diodes;Si;  40.0V  0.200A  5.00ns   Diodes Inc Schottky
.MODEL BAS40LP D  ( IS=2.93u RS=1.29 BV=40.0 IBV=200n
+ CJO=2.30p  M=0.333 N=2.39 TT=7.20n )

*SRC=BAS40TW;DI_BAS40TW;Diodes;Si;  40.0V  0.200A  5.00ns   Diodes Inc. Schottky diode, Tripple, one node of three
.MODEL BAS40TW D  ( IS=6.12u RS=0.120 BV=40.0 IBV=200n 
+ CJO=5.00p  M=0.333 N=2.61 TT=7.20n )

*SRC=BAS40T;DI_BAS40T;Diodes;Si;  40.0V  0.200A  5.00ns   Diodes Inc. Schottky diode 
.MODEL BAS40T D  ( IS=6.12u RS=0.120 BV=40.0 IBV=200n 
+ CJO=5.00p  M=0.333 N=2.61 TT=7.20n )

*SRC=BAS40W-04;DI_BAS40W-04;Diodes;Si;  40.0V  0.200A  5.00ns   Diodes Inc. Schottky diode, dual, one node of two
.MODEL BAS40W-04 D  ( IS=6.12u RS=0.120 BV=40.0 IBV=200n 
+ CJO=5.00p  M=0.333 N=2.61 TT=7.20n )

*SRC=BAS40W-05;DI_BAS40W-05;Diodes;Si;  40.0V  0.200A  5.00ns   Diodes Inc. Schottky diode, dual, one node of two
.MODEL BAS40W-05 D  ( IS=6.12u RS=0.120 BV=40.0 IBV=200n 
+ CJO=5.00p  M=0.333 N=2.61 TT=7.20n )

*SRC=BAS40W-06;DI_BAS40W-06;Diodes;Si;  40.0V  0.200A  5.00ns   Diodes Inc. Schottky diode, dual, one node of two
.MODEL BAS40W-06 D  ( IS=6.12u RS=0.120 BV=40.0 IBV=200n 
+ CJO=5.00p  M=0.333 N=2.61 TT=7.20n )

*SRC=BAS70-04T;DI_BAS70-04T;Diodes;Si;  70.0V  70.0mA  5.00ns   Diodes Inc. Schottky diode, dual, one node of two
.MODEL BAS70-04T D  ( IS=99.5p RS=0.600 BV=70.0 IBV=10.0u
+ CJO=2.00p  M=0.333 N=1.70 TT=7.20n )

*SRC=BAS70-05T;DI_BAS70-05T;Diodes;Si;  70.0V  70.0mA  5.00ns   Diodes Inc. Schottky diode, dual, one node of two
.MODEL BAS70-05T D  ( IS=99.5p RS=0.600 BV=70.0 IBV=10.0u
+ CJO=2.00p  M=0.333 N=1.70 TT=7.20n )

*SRC=BAS70-06T;DI_BAS70-06T;Diodes;Si;  70.0V  70.0mA  5.00ns   Diodes Inc. Schottky diode, dual, one node of two
.MODEL BAS70-06T D  ( IS=99.5p RS=0.600 BV=70.0 IBV=10.0u
+ CJO=2.00p  M=0.333 N=1.70 TT=7.20n )

*SRC=BAS70BRW;DI_BAS70BRW;Diodes;Si;  70.0V  70.0mA  5.00ns   Diodes Inc. Schottky diode, quad, one node of four
.MODEL BAS70BRW D  ( IS=99.5p RS=0.600 BV=70.0 IBV=10.0u
+ CJO=2.00p  M=0.333 N=1.70 TT=7.20n )

*SRC=BAS70DW-04;DI_BAS70DW-04;Diodes;Si;  70.0V  70.0mA  5.00ns   Diodes Inc. Schottky diode, quad, one node of four
.MODEL BAS70DW-04 D  ( IS=99.5p RS=0.600 BV=70.0 IBV=10.0u
+ CJO=2.00p  M=0.333 N=1.70 TT=7.20n )

*SRC=BAS70DW-05;DI_BAS70DW-05;Diodes;Si;  70.0V  70.0mA  5.00ns   Diodes Inc. Schottky diode, quad, one node of four
.MODEL BAS70DW-05 D  ( IS=99.5p RS=0.600 BV=70.0 IBV=10.0u
+ CJO=2.00p  M=0.333 N=1.70 TT=7.20n )

*SRC=BAS70DW-06;DI_BAS70DW-06;Diodes;Si;  70.0V  70.0mA  5.00ns   Diodes Inc. Schottky diode, quad, one node of four
.MODEL BAS70DW-06 D  ( IS=99.5p RS=0.600 BV=70.0 IBV=10.0u
+ CJO=2.00p  M=0.333 N=1.70 TT=7.20n )

*SRC=BAS70JW;DI_BAS70JW;Diodes;Si;  70.0V  70.0mA  5.00ns   Diodes Inc. Schottky diode, dual, one node of two
.MODEL BAS70JW D  ( IS=99.5p RS=0.600 BV=70.0 IBV=10.0u
+ CJO=2.00p  M=0.333 N=1.70 TT=7.20n )

*SRC=BAS70T;DI_BAS70T;Diodes;Si;  70.0V  70.0mA  5.00ns   Diodes Inc. Schottky diode
.MODEL BAS70T D  ( IS=99.5p RS=0.600 BV=70.0 IBV=10.0u
+ CJO=2.00p  M=0.333 N=1.70 TT=7.20n )

*SRC=BAS70TW;DI_BAS70TW;Diodes;Si;  70.0V  70.0mA  5.00ns   Diodes Inc. Schottky diode, tripple, one node of three
.MODEL BAS70TW D  ( IS=99.5p RS=0.600 BV=70.0 IBV=10.0u
+ CJO=2.00p  M=0.333 N=1.70 TT=7.20n )

*SRC=BAS70W-04;DI_BAS70W-04;Diodes;Si;  70.0V  70.0mA  5.00ns   Diodes Inc. Schottky diode, dual, one node of two
.MODEL BAS70W-04 D  ( IS=99.5p RS=0.600 BV=70.0 IBV=10.0u
+ CJO=2.00p  M=0.333 N=1.70 TT=7.20n )

*SRC=BAS70W-05;DI_BAS70W-05;Diodes;Si;  70.0V  70.0mA  5.00ns   Diodes Inc. Schottky diode, dual, one node of two
.MODEL BAS70W-05 D  ( IS=99.5p RS=0.600 BV=70.0 IBV=10.0u
+ CJO=2.00p  M=0.333 N=1.70 TT=7.20n )

*SRC=BAS70W-06;DI_BAS70W-06;Diodes;Si;  70.0V  70.0mA  5.00ns   Diodes Inc. Schottky diode, dual, one node of two
.MODEL BAS70W-06 D  ( IS=99.5p RS=0.600 BV=70.0 IBV=10.0u
+ CJO=2.00p  M=0.333 N=1.70 TT=7.20n )

*SRC=BAT40V;DI_BAT40V;Diodes;Si;  40.0V  0.200A  5.00ns   Diodes Inc. Schottky
.MODEL BAT40V D  ( IS=82.9n RS=0.373 BV=40.0 IBV=10.0u
+ CJO=11.9p  M=0.333 N=1.14 TT=7.20n )

*SRC=BAT40VC;DI_BAT40VC;Diodes;Si;  40.0V  0.200A  5.00ns   Diodes Inc. Schottky
.MODEL BAT40VC D  ( IS=82.9n RS=0.373 BV=40.0 IBV=10.0u
+ CJO=11.9p  M=0.333 N=1.14 TT=7.20n )

*SRC=BAT42W;DI_BAT42W;Diodes;Si;  30.0V  0.200A  5.00ns   Diodes Inc Schottky Diode
.MODEL BAT42W D  ( IS=87.5u RS=18.1m BV=30.0 IBV=500n
+ CJO=8.88p  M=0.333 N=3.51 TT=7.20n )

*SRC=BAT42WS;DI_BAT42WS;Diodes;Si;  30.0V  0.200A  5.00ns   Diodes Inc
Schottky Diode
.MODEL BAT42WS D  ( IS=87.5u RS=18.1m BV=30.0 IBV=500n
+ CJO=8.88p  M=0.333 N=3.51 TT=7.20n )

*SRC=BAT43W;DI_BAT43W;Diodes;Si;  30.0V  0.200A  5.00ns   Diodes Inc Schottky Diode 
.MODEL BAT43W D  ( IS=87.5u RS=18.1m BV=30.0 IBV=500n 
+ CJO=8.88p  M=0.333 N=3.51 TT=7.20n )

*SRC=BAT43WS;DI_BAT43WS;Diodes;Si;  30.0V  0.200A  5.00ns   Diodes Inc Schottky Diode 
.MODEL BAT43WS D  ( IS=87.5u RS=18.1m BV=30.0 IBV=500n 
+ CJO=8.88p  M=0.333 N=3.51 TT=7.20n )

*SRC=BAT46W;DI_BAT46W;Diodes;Si;  100V  0.150A  5.00ns   Diodes Inc. Schottky 
.MODEL BAT46W D  ( IS=603n RS=0.280 BV=100 IBV=5.00u 
+ CJO=7.96p  M=0.333 N=1.70 TT=7.20n )

*SRC=BAT54AT;DI_BAT54AT;Diodes;Si;  30.0V  0.200A  5.00ns   Diodes Inc. Schottky diode, dual, one node of two
.MODEL BAT54AT D  ( IS=34.9u RS=0.210 BV=30.0 IBV=2.00u
+ CJO=13.3p  M=0.333 N=2.28 TT=7.20n )

*SRC=BAT54ADW;DI_BAT54ADW;Diodes;Si;  30.0V  0.200A  5.00ns   Diodes Inc. Schottky diode, quad, one node of four
.MODEL BAT54ADW D  ( IS=34.9u RS=0.210 BV=30.0 IBV=2.00u
+ CJO=13.3p  M=0.333 N=2.28 TT=7.20n )

*SRC=BAT54BRW;DI_BAT54BRW;Diodes;Si;  30.0V  0.200A  5.00ns   Diodes Inc. Schottky diode, quad, one node of four
.MODEL BAT54BRW D  ( IS=34.9u RS=0.210 BV=30.0 IBV=2.00u
+ CJO=13.3p  M=0.333 N=2.28 TT=7.20n )

*SRC=BAT54CDW;DI_BAT54CDW;Diodes;Si;  30.0V  0.200A  5.00ns   Diodes Inc. Schottky diode, quad, one node of four
.MODEL BAT54CDW D  ( IS=34.9u RS=0.210 BV=30.0 IBV=2.00u
+ CJO=13.3p  M=0.333 N=2.28 TT=7.20n )

*SRC=BAT54CT;DI_BAT54CT;Diodes;Si;  30.0V  0.200A  5.00ns   Diodes Inc. Schottky diode, dual, one node of two
.MODEL BAT54CT D  ( IS=34.9u RS=0.210 BV=30.0 IBV=2.00u
+ CJO=13.3p  M=0.333 N=2.28 TT=7.20n )

*SRC=BAT54DW;DI_BAT54DW;Diodes;Si;  30.0V  0.200A  5.00ns   Diodes Inc. Schottky, dual, one of two nodes
.MODEL BAT54DW D  ( IS=235n RS=0.210 BV=30.0 IBV=2.00u
+ CJO=13.3p  M=0.333 N=1.28 TT=7.20n )

*SRC=BAT54JW;DI_BAT54JW;Diodes;Si;  30.0V  0.200A  5.00ns   Diodes Inc. Schottky diode, dual, one node of two
.MODEL BAT54JW D  ( IS=34.9u RS=0.210 BV=30.0 IBV=2.00u
+ CJO=13.3p  M=0.333 N=2.28 TT=7.20n )

*SRC=BAT54LP;DI_BAT54LP;Diodes;Si;  30.0V  0.200A  5.00ns   Diodes Inc Schottky
.MODEL BAT54LP D  ( IS=138n RS=0.716 BV=30.0 IBV=2.00u
+ CJO=13.3p  M=0.333 N=1.18 TT=7.20n )

*SRC=BAT54LPS;DI_BAT54LPS;Diodes;Si;  30.0V  0.200A  2.00ns   Diodes Inc. SBR/ SKY
.MODEL BAT54LPS D  ( IS=20.9n RS=0.895 BV=30.0 IBV=2.00u
+ CJO=10.6p  M=0.333 N=1.07 TT=2.88n )

*SRC=BAT54ST;DI_BAT54ST;Diodes;Si;  30.0V  0.200A  5.00ns   Diodes Inc. Schottky diode, dual, one node of two
.MODEL BAT54ST D  ( IS=34.9u RS=0.210 BV=30.0 IBV=2.00u
+ CJO=13.3p  M=0.333 N=2.28 TT=7.20n )

*SRC=BAT54SDW;DI_BAT54SDW;Diodes;Si;  30.0V  0.200A  5.00ns   Diodes Inc. Schottky diode, quad, one node of four
.MODEL BAT54SDW D  ( IS=34.9u RS=0.210 BV=30.0 IBV=2.00u
+ CJO=13.3p  M=0.333 N=2.28 TT=7.20n )

*SRC=BAT54TW;DI_BAT54TW;Diodes;Si;  30.0V  0.200A  5.00ns   Diodes Inc. Schottky diode, tripple, one node of three
.MODEL BAT54TW D  ( IS=34.9u RS=0.210 BV=30.0 IBV=2.00u
+ CJO=13.3p  M=0.333 N=2.28 TT=7.20n )

*SRC=BAT54V;DI_BAT54V;Diodes;Si;  29.6V  0.200A  5.00ns   Diodes Inc. One Element of Dual Schottky Diodes
.MODEL BAT54V D  ( IS=124n RS=0.210 BV=29.6 IBV=2.00
+ CJO=13.3  M=0.333 N=1.19 TT=7.20n )

*SRC=BAT54WS;DI_BAT54WS;Diodes;Si;  30.0V  0.200A  5.00ns   Diodes Inc. Schottky diode
.MODEL BAT54WS D  ( IS=34.9u RS=0.210 BV=30.0 IBV=2.00u
+ CJO=13.3p  M=0.333 N=2.28 TT=7.20n )

*SRC=PS3S0230;DI_PD3S0230;Diodes;Si;  30.0V  0.200A  2.00ns   Diodes INC Schottky Diode
.MODEL PD3S0230 D  ( IS=400n RS=0.378 BV=30.0 IBV=2.00u
+ CJO=14.6p  M=0.333 N=1.31 TT=2.88n )

*SRC=QSBT40;DI_QSBT40;Diodes;Si;  30.0V  0.200A  50.0ns   Diodes Inc. Schottky Bus - Single Device of Multiple
.MODEL QSBT40 D  ( IS=500n RS=0.211 BV=30.0 IBV=2.00u
+ CJO=10.0p  M=0.333 N=1.70 TT=72.0n )

*SRC=SD101AW;DI_SD101AW;Diodes;Si;  60.0V  15.0mA  1.00ns   Diodes Inc. Schottky 
.MODEL SD101AW D  ( IS=1.82u RS=2.80 BV=60.0 IBV=200n 
+ CJO=2.65p  M=0.333 N=1.70 TT=1.44n )

*SRC=SD101BW;DI_SD101BW;Diodes;Si;  50.0V  15.0mA  1.00ns   Diodes Inc. Schottky 
.MODEL SD101BW D  ( IS=1.82u RS=2.80 BV=50.0 IBV=200n 
+ CJO=2.65p  M=0.333 N=1.70 TT=1.44n )

*SRC=SD101BWS;DI_SD101BWS;Diodes;Si;  50.0V  15.0mA  1.00ns   Diodes Inc. Schottky 
.MODEL SD101BWS D  ( IS=1.82u RS=2.80 BV=50.0 IBV=200n 
+ CJO=2.65p  M=0.333 N=1.70 TT=1.44n )

*SRC=SD101CW;DI_SD101CW;Diodes;Si;  40.0V  15.0mA  1.00ns   Diodes Inc. Schottky 
.MODEL SD101CW D  ( IS=1.82u RS=2.80 BV=40.0 IBV=200n 
+ CJO=2.65p  M=0.333 N=1.70 TT=1.44n )

*SRC=SD101CWS;DI_SD101CWS;Diodes;Si;  40.0V  15.0mA  1.00ns   Diodes Inc. Schottky 
.MODEL SD101CWS D  ( IS=1.82u RS=2.80 BV=40.0 IBV=200n 
+ CJO=2.65p  M=0.333 N=1.70 TT=1.44n )

*SRC=SD101AWS;DI_SD101AWS;Diodes;Si;  60.0V  15.0mA  1.00ns   Diodes Inc. Schottky- SD101AWS/BWS/CWS
.MODEL SD101AWS D  ( IS=230n RS=2.13 BV=60.0 IBV=200n
+ CJO=2.00p  M=0.333 N=1.96 TT=1.44n )

*SRC=SD103ASDM;DI_SD103ASDM;Diodes;Si;  40.0V  0.350A  10.0ns   Diodes Inc. Schottky Barrier Diode, quad, one node of four
.MODEL SD103ASDM D  ( IS=646n RS=0.120 BV=40.0 IBV=5.00u
+ CJO=29.2  M=0.333 N=1.28 TT=14.4n )

*SRC=SD103ATW;DI_SD103ATW;Diodes;Si;  40.0V  0.350A  10.0ns   Diodes Inc. Schottky Barrier Diode, tripple, one node of three
.MODEL SD103ATW D  ( IS=646n RS=0.120 BV=40.0 IBV=5.00u
+ CJO=29.2  M=0.333 N=1.28 TT=14.4n )

*SRC=SD103AW;DI_SD103AW;Diodes;Si;  40.0V  0.350A  10.0ns   Diodes Inc. Schottky 
.MODEL SD103AW D  ( IS=8.65u RS=0.120 BV=40.0 IBV=5.00u 
+ CJO=53.0p  M=0.333 N=1.70 TT=14.4n )

*SRC=SD103AWS;DI_SD103AWS;Diodes;Si;  40.0V  0.350A  10.0ns   Diodes Inc.
Schottky
.MODEL SD103AWS D  ( IS=8.65u RS=0.120 BV=40.0 IBV=5.00u
+ CJO=53.0p  M=0.333 N=1.70 TT=14.4n )

*SRC=SD103BW;DI_SD103BW;Diodes;Si;  30.0V  0.350A  10.0ns   Diodes Inc. Schottky 
.MODEL SD103BW D  ( IS=8.65u RS=0.120 BV=30.0 IBV=5.00u 
+ CJO=53.0p  M=0.333 N=1.70 TT=14.4n )

*SRC=SD103BWS;DI_SD103BWS;Diodes;Si;  30.0V  0.350A  10.0ns   Diodes Inc. Schottky 
.MODEL SD103BWS D  ( IS=8.65u RS=0.120 BV=30.0 IBV=5.00u 
+ CJO=53.0p  M=0.333 N=1.70 TT=14.4n )

*SRC=SD103CW;DI_SD103CW;Diodes;Si;  20.0V  0.350A  10.0ns   Diodes Inc. Schottky 
.MODEL SD103CW D  ( IS=8.65u RS=0.120 BV=20.0 IBV=5.00u 
+ CJO=53.0p  M=0.333 N=1.70 TT=14.4n )

*SRC=SD103CWS;DI_SD103CWS;Diodes;Si;  20.0V  0.350A  10.0ns   Diodes Inc. Schottky 
.MODEL SD103CWS D  ( IS=8.65u RS=0.120 BV=20.0 IBV=5.00u 
+ CJO=53.0p  M=0.333 N=1.70 TT=14.4n )

*SRC=SDM03MT40;DI_SDM03MT40;Diodes;Si;  40.0V  0.200A  5.00ns   Diodes Inc. Schottky 
.MODEL SDM03MT40 D  ( IS=309u RS=0.210 BV=40.0 IBV=1.00u 
+ CJO=2.65p  M=0.333 N=6.81 TT=7.20n )

*SRC=SDM03U40;DI_SDM03U40;Diodes;Si;  30.0V  30.0mA  1.00ns   Diodes Inc. Schottky
.MODEL SDM03U40 D  ( IS=16.5u RS=2.20 BV=30.0 IBV=500n
+ CJO=2.59p  M=0.333 N=2.92 TT=1.44n )

*SRC=SDM10M45SD;DI_SDM10M45SD;Diodes;Si;  45.0V  0.100A  5.00ns   Diodes Inc. Schottky 
.MODEL SDM10M45SD D  ( IS=290n RS=0.420 BV=45.0 IBV=1.00u 
+ CJO=10.6p  M=0.333 N=1.28 TT=7.20n )

*SRC=SDM10P45;DI_SDM10P45;Diodes;Si;  45.0V  0.100A  5.00ns   Diodes Inc. Schottky 
.MODEL SDM10P45 D  ( IS=745n RS=0.792 BV=45.0 IBV=1.00u 
+ CJO=11.2p  M=0.333 N=1.39 TT=7.20n )

*SRC=SDM10U45;DI_SDM10U45;Diodes;Si;  45.0V  0.100A  2.00ns   Diodes Inc. SBR/ SKY
.MODEL SDM10U45 D  ( IS=7.68u RS=1.32 BV=45.0 IBV=1.00u
+ CJO=13.3p  M=0.333 N=1.81 TT=2.88n )

*SRC=SDM10U45LP;DI_SDM10U45LP;Diodes;Si;  40.0V  0.300A  5.00ns   Diodes Inc. Schottky
.MODEL SDM10U45LP D  ( IS=26.8u RS=0.140 BV=40.0 IBV=1.00u
+ CJO=10.6p  M=0.333 N=2.45 TT=7.20n )

*SRC=SDM20E40C;DI_SDM20E40C;Diodes;Si;  40.0V  0.400A  5.00ns   Diodes Inc. Schottky 
.MODEL SDM20E40C D  ( IS=3.15u RS=0.165 BV=40.0 IBV=70.0u 
+ CJO=39.8p  M=0.333 N=1.16 TT=7.20n )

*SRC=SDM20U30;DI_SDM20U30;Diodes;Si;  30.0V  0.200A  5.00ns   Diodes Inc. Schottky
.MODEL SDM20U30 D  ( IS=59.4n RS=0.210 BV=30.0 IBV=150u
+ CJO=19.9p  M=0.333 N=0.700 TT=7.20n )

*SRC=SDM20U30LP;DI_SDM20U30LP;Diodes;Si;  30.0V  0.200A  5.00ns   Diodes Inc. Schottky
.MODEL SDM20U30LP D  ( IS=59.4n RS=0.210 BV=30.0 IBV=150u
+ CJO=19.9p  M=0.333 N=0.700 TT=7.20n )

*SRC=SDM20U40;DI_SDM20U40;Diodes;Si;  40.0V  0.250A  10.0ns   Diodes Inc. Schottky
.MODEL SDM20U40 D  ( IS=4.32u RS=0.168 BV=40.0 IBV=5.00u
+ CJO=39.8p  M=0.333 N=1.70 TT=14.4n )

*SRC=SDM20N40A;DI_SDM20N40A;Diodes;Si;  40.0V  0.200A  5.00ns   Diodes, Inc. Dual Schottky, Model for Single Schottky Only
.MODEL SDM20N40A D  ( IS=34.0p RS=0.211 BV=40.0 IBV=15.0u
+ CJO=50.0p  M=0.333 N=1.73 TT=7.20n)

*SRC=SDM40E20LC;DI_SDM40E20LC;Diodes;Si;  20.0V  0.400A  10.0ns   Diodes INC Schottky Diode
.MODEL SDM40E20LC D  ( IS=2.83m RS=23.0m BV=20.0 IBV=250u
+ CJO=66.3p  M=0.333 N=2.17 TT=14.4n)

*SRC=SDM40E20LS;DI_SDM40E20LS;Diodes;Si;  20.0V  0.400A  5.00ns   Diodes Inc. Schottky 
.MODEL SDM40E20LS D  ( IS=54.8u RS=0.132 BV=20.0 IBV=250u 
+ CJO=199p  M=0.333 N=1.34 TT=7.20n )

*SRC=SDMG0340L;DI_SDMG0340L;Diodes;Si;  40.0V  30.0mA  1.00ns   Diodes Inc. 
.MODEL SDMG0340L D  ( IS=13.9u RS=2.57 BV=40.0 IBV=10.0u
+ CJO=2.65p  M=0.333 N=2.82 TT=1.44n )

*SRC=SDMG0340LA;DI_SDMG0340LA;Diodes;Si;  40.0V  30.0mA  1.00ns   Diodes Inc. Schottky diode, dual, one node of two 
.MODEL SDMG0340LA D  ( IS=13.9u RS=2.57 BV=40.0 IBV=10.0u
+ CJO=2.65p  M=0.333 N=2.82 TT=1.44n )

*SRC=SDMG0340LC;DI_SDMG0340LC;Diodes;Si;  40.0V  30.0mA  1.00ns   Diodes Inc. Schottky diode, dual, one node of two 
.MODEL SDMG0340LC D  ( IS=13.9u RS=2.57 BV=40.0 IBV=10.0u
+ CJO=2.65p  M=0.333 N=2.82 TT=1.44n )

*SRC=SDMK0340L;DI_SDMK0340L;Diodes;Si;  40.0V  30.0mA  3.00us   Diodes Inc. Schottky Barrier Diode
.MODEL SDMK0340L D  ( IS=11.2u RS=3.64 BV=40.0 IBV=500n
+ CJO=2.65p  M=0.333 N=2.69 TT=4.32u )

*SRC=SDMG0340LS;DI_SDMG0340LS;Diodes;Si;  40.0V  30.0mA  1.00ns   Diodes Inc. Schottky diode, dual, one node of two 
.MODEL SDMG0340LS D  ( IS=13.9u RS=2.57 BV=40.0 IBV=10.0u
+ CJO=2.65p  M=0.333 N=2.82 TT=1.44n )

*SRC=SDMP0340LAT;DI_SDMP0340LAT;Diodes;Si;  40.0V  30.0mA  5.00ns   Diodes Inc. Schottky diode, dual, one node of two 
.MODEL SDMP0340LAT D  ( IS=16.5u RS=2.20 BV=40.0 IBV=1.00u 
+ CJO=2.65p  M=0.333 N=2.92 TT=7.20n )

*SRC=SDMP0340LCT;DI_SDMP0340LCT;Diodes;Si;  40.0V  30.0mA  5.00ns   Diodes Inc. Schottky diode, dual, one node of two 
.MODEL SDMP0340LCT D  ( IS=16.5u RS=2.20 BV=40.0 IBV=1.00u 
+ CJO=2.65p  M=0.333 N=2.92 TT=7.20n )

*SRC=SDMP0340LST;DI_SDMP0340LST;Diodes;Si;  40.0V  30.0mA  5.00ns   Diodes Inc. Schottky diode, dual, one node of two 
.MODEL SDMP0340LST D  ( IS=16.5u RS=2.20 BV=40.0 IBV=1.00u 
+ CJO=2.65p  M=0.333 N=2.92 TT=7.20n )

*SRC=SDMP0340LT;DI_SDMP0340LT;Diodes;Si;  40.0V  30.0mA  5.00ns   Diodes Inc. Schottky 
.MODEL SDMP0340LT D  ( IS=16.5u RS=2.20 BV=40.0 IBV=1.00u 
+ CJO=2.65p  M=0.333 N=2.92 TT=7.20n )

*SRC=AZ23C27;DI_AZ23C27;Diodes;Zener 10V-50V; 27.0V  0.300W   Diodes Inc. Per node.  Device contains two
*SYM=HZEN
.SUBCKT AZ23C27  1 2
*        Terminals    A   K
D1 1 2 DF
DZ 3 1 DR
VZ 2 3 24.4
.MODEL DF D ( IS=4.58p RS=28.7 N=1.10
+ CJO=20.7p VJ=1.00 M=0.330 TT=50.1n )
.MODEL DR D ( IS=9.16e-016 RS=64.5 N=3.00 )
.ENDS

*SRC=AZ23C5V6;DI_AZ23C5V6;Diodes;Zener <=10V; 5.60V  0.300W   Diodes Inc. Per node.  Device contains two
*SYM=HZEN
*VERSION=2
.SUBCKT AZ23C5V6  1 2
*        Terminals    A   K
D1 1 2 DF
DZ 3 1 DR
VZ 2 3 3.32
.MODEL DF D ( IS=22.1p RS=33.2 N=1.10 CJO=102p VJ=0.750 M=0.330 TT=50.1n )
.MODEL DR D ( IS=4.41f RS=24.5 N=3.00 )
.ENDS
*
*$

*SRC=AZ23C10;DI_AZ23C10;Diodes;Zener <=10V; 10.0V  0.300W   Diodes Inc. Per node.  Device contains two
*SYM=HZEN
.SUBCKT AZ23C10  1 2
*        Terminals    A   K
D1 1 2 DF
DZ 3 1 DR
VZ 2 3 8.35
.MODEL DF D ( IS=12.4p RS=31.6 N=1.10
+ CJO=46.3p VJ=0.750 M=0.330 TT=50.1n )
.MODEL DR D ( IS=2.47f RS=3.45 N=2.23 )
.ENDS

*SRC=AZ23C11;DI_AZ23C11;Diodes;Zener 10V-50V; 11.0V  0.300W   Diodes Inc. Per node.  Device contains two
*SYM=HZEN
.SUBCKT AZ23C11  1 2
*        Terminals    A   K
D1 1 2 DF
DZ 3 1 DR
VZ 2 3 8.79
.MODEL DF D ( IS=11.2p RS=31.3 N=1.10
+ CJO=41.5p VJ=1.00 M=0.330 TT=50.1n )
.MODEL DR D ( IS=2.25f RS=4.60 N=2.97 )
.ENDS

*SRC=AZ23C13;DI_AZ23C13;Diodes;Zener 10V-50V; 13.0V  0.300W   Diodes Inc. Per node.  Device contains two
*SYM=HZEN
.SUBCKT AZ23C13  1 2
*        Terminals    A   K
D1 1 2 DF
DZ 3 1 DR
VZ 2 3 10.7
.MODEL DF D ( IS=9.51p RS=30.8 N=1.10
+ CJO=37.7p VJ=1.00 M=0.330 TT=50.1n )
.MODEL DR D ( IS=1.90f RS=9.46 N=3.00 )
.ENDS

*SRC=AZ23C15;DI_AZ23C15;Diodes;Zener 10V-50V; 15.0V  0.300W   Diodes Inc. Per node.  Device contains two
*SYM=HZEN
.SUBCKT AZ23C15  1 2
*        Terminals    A   K
D1 1 2 DF
DZ 3 1 DR
VZ 2 3 12.7
.MODEL DF D ( IS=8.24p RS=30.4 N=1.10
+ CJO=31.4p VJ=1.00 M=0.330 TT=50.1n )
.MODEL DR D ( IS=1.65f RS=14.5 N=3.00 )
.ENDS

*SRC=AZ23C16;DI_AZ23C16;Diodes;Zener 10V-50V; 16.0V  0.300W   Diodes Inc. Per node.  Device contains two
*SYM=HZEN
.SUBCKT AZ23C16  1 2
*        Terminals    A   K
D1 1 2 DF
DZ 3 1 DR
VZ 2 3 13.6
.MODEL DF D ( IS=7.72p RS=30.2 N=1.10
+ CJO=30.2p VJ=1.00 M=0.330 TT=50.1n )
.MODEL DR D ( IS=1.54f RS=24.5 N=3.00 )
.ENDS

*SRC=AZ23C18;DI_AZ23C18;Diodes;Zener 10V-50V; 18.0V  0.300W   Diodes Inc. Per node.  Device contains two
*SYM=HZEN
.SUBCKT AZ23C18  1 2
*        Terminals    A   K
D1 1 2 DF
DZ 3 1 DR
VZ 2 3 15.6
.MODEL DF D ( IS=6.87p RS=29.9 N=1.10
+ CJO=26.4p VJ=1.00 M=0.330 TT=50.1n )
.MODEL DR D ( IS=1.37f RS=34.5 N=3.00 )
.ENDS

*SRC=AZ23C20;DI_AZ23C20;Diodes;Zener 10V-50V; 20.0V  0.300W   Diodes Inc. Per node.  Device contains two
*SYM=HZEN
.SUBCKT AZ23C20  1 2
*        Terminals    A   K
D1 1 2 DF
DZ 3 1 DR
VZ 2 3 17.6
.MODEL DF D ( IS=6.18p RS=29.6 N=1.10
+ CJO=23.9p VJ=1.00 M=0.330 TT=50.1n )
.MODEL DR D ( IS=1.24f RS=34.5 N=3.00 )
.ENDS

*SRC=AZ23C22;DI_AZ23C22;Diodes;Zener 10V-50V; 22.0V  0.300W   Diodes Inc. Per node.  Device contains two
*SYM=HZEN
.SUBCKT AZ23C22  1 2
*        Terminals    A   K
D1 1 2 DF
DZ 3 1 DR
VZ 2 3 19.5
.MODEL DF D ( IS=5.62p RS=29.3 N=1.10
+ CJO=22.6p VJ=1.00 M=0.330 TT=50.1n )
.MODEL DR D ( IS=1.12f RS=39.5 N=3.00 )
.ENDS

*SRC=AZ23C24;DI_AZ23C24;Diodes;Zener 10V-50V; 24.0V  0.300W   Diodes Inc. Per node.  Device contains two
*SYM=HZEN
.SUBCKT AZ23C24  1 2
*        Terminals    A   K
D1 1 2 DF
DZ 3 1 DR
VZ 2 3 21.4
.MODEL DF D ( IS=5.15p RS=29.1 N=1.10
+ CJO=21.4p VJ=1.00 M=0.330 TT=50.1n )
.MODEL DR D ( IS=1.03f RS=64.5 N=3.00 )
.ENDS

*SRC=AZ23C2V7;DI_AZ23C2V7;Diodes;Zener <=10V; 2.70V  0.300W   Diodes Inc. Per node.  Device contains two
*SYM=HZEN
.SUBCKT AZ23C2V7  1 2
*        Terminals    A   K
D1 1 2 DF
DZ 3 1 DR
VZ 2 3 0.263
.MODEL DF D ( IS=45.8p RS=35.3 N=1.10
+ CJO=450p VJ=0.750 M=0.330 TT=50.1n )
.MODEL DR D ( IS=9.16f RS=67.5 N=3.00 )
.ENDS

*SRC=AZ23C30;DI_AZ23C30;Diodes;Zener 10V-50V; 30.0V  0.300W   Diodes Inc. Per node.  Device contains two
*SYM=HZEN
.SUBCKT AZ23C30  1 2
*        Terminals    A   K
D1 1 2 DF
DZ 3 1 DR
VZ 2 3 27.4
.MODEL DF D ( IS=4.12p RS=28.4 N=1.10
+ CJO=19.5p VJ=1.00 M=0.330 TT=50.1n )
.MODEL DR D ( IS=8.24e-016 RS=64.5 N=3.00 )
.ENDS

*SRC=AZ23C33;DI_AZ23C33;Diodes;Zener 10V-50V; 33.0V  0.300W   Diodes Inc. Per node.  Device contains two
*SYM=HZEN
.SUBCKT AZ23C33  1 2
*        Terminals    A   K
D1 1 2 DF
DZ 3 1 DR
VZ 2 3 30.4
.MODEL DF D ( IS=3.75p RS=28.2 N=1.10
+ CJO=18.9p VJ=1.00 M=0.330 TT=50.1n )
.MODEL DR D ( IS=7.49e-016 RS=64.5 N=3.00 )
.ENDS

*SRC=AZ23C36;DI_AZ23C36;Diodes;Zener 10V-50V; 36.0V  0.300W   Diodes Inc. Per node.  Device contains two
*SYM=HZEN
.SUBCKT AZ23C36  1 2
*        Terminals    A   K
D1 1 2 DF
DZ 3 1 DR
VZ 2 3 33.3
.MODEL DF D ( IS=3.43p RS=27.9 N=1.10
+ CJO=17.6p VJ=1.00 M=0.330 TT=50.1n )
.MODEL DR D ( IS=6.87e-016 RS=74.5 N=3.00 )
.ENDS

*SRC=AZ23C39;DI_AZ23C39;Diodes;Zener 10V-50V; 39.0V  0.300W   Diodes Inc. Per node.  Device contains two
*SYM=HZEN
.SUBCKT AZ23C39  1 2
*        Terminals    A   K
D1 1 2 DF
DZ 3 1 DR
VZ 2 3 36.3
.MODEL DF D ( IS=3.17p RS=27.7 N=1.10
+ CJO=17.0p VJ=1.00 M=0.330 TT=50.1n )
.MODEL DR D ( IS=6.34e-016 RS=74.5 N=3.00 )
.ENDS

*SRC=AZ23C3V0;DI_AZ23C3V0;Diodes;Zener <=10V; 3.00V  0.300W   Diodes Inc. Per node.  Device contains two
*SYM=HZEN
.SUBCKT AZ23C3V0  1 2
*        Terminals    A   K
D1 1 2 DF
DZ 3 1 DR
VZ 2 3 0.495
.MODEL DF D ( IS=41.2p RS=35.0 N=1.10
+ CJO=417p VJ=0.750 M=0.330 TT=50.1n )
.MODEL DR D ( IS=8.24f RS=79.5 N=3.00 )
.ENDS

*SRC=AZ23C3V3;DI_AZ23C3V3;Diodes;Zener <=10V; 3.30V  0.300W   Diodes Inc. Per node.  Device contains two
*SYM=HZEN
.SUBCKT AZ23C3V3  1 2
*        Terminals    A   K
D1 1 2 DF
DZ 3 1 DR
VZ 2 3 0.787
.MODEL DF D ( IS=37.5p RS=34.7 N=1.10
+ CJO=397p VJ=0.750 M=0.330 TT=50.1n )
.MODEL DR D ( IS=7.49f RS=79.5 N=3.00 )
.ENDS

*SRC=AZ23C3V6;DI_AZ23C3V6;Diodes;Zener <=10V; 3.60V  0.300W   Diodes Inc. Per node.  Device contains two
*SYM=HZEN
.SUBCKT AZ23C3V6 1 2
*        Terminals    A   K
D1 1 2 DF
DZ 3 1 DR
VZ 2 3 1.08
.MODEL DF D ( IS=34.3p RS=34.5 N=1.10
+ CJO=384p VJ=0.750 M=0.330 TT=50.1n )
.MODEL DR D ( IS=6.87f RS=79.5 N=3.00 )
.ENDS

*SRC=AZ23C3V9;DI_AZ23C3V9;Diodes;Zener <=10V; 3.60V  0.300W   Diodes Inc. Per node.  Device contains two
*SYM=HZEN
.SUBCKT AZ23C3V9  1 2
*        Terminals    A   K
D1 1 2 DF
DZ 3 1 DR
VZ 2 3 1.08
.MODEL DF D ( IS=34.3p RS=34.5 N=1.10
+ CJO=370p VJ=0.750 M=0.330 TT=50.1n )
.MODEL DR D ( IS=6.87f RS=79.5 N=3.00 )
.ENDS

*SRC=AZ23C43;DI_AZ23C43;Diodes;Zener 10V-50V; 43.0V  0.300W   Diodes Inc. Per node.  Device contains two
*SYM=HZEN
.SUBCKT AZ23C43  1 2
*        Terminals    A   K
D1 1 2 DF
DZ 3 1 DR
VZ 2 3 40.3
.MODEL DF D ( IS=2.87p RS=27.4 N=1.10
+ CJO=16.7p VJ=1.00 M=0.330 TT=50.1n )
.MODEL DR D ( IS=5.75e-016 RS=84.5 N=3.00 )
.ENDS

*SRC=AZ23C47;DI_AZ23C47;Diodes;Zener 10V-50V; 47.0V  0.300W   Diodes Inc. Per node.  Device contains two
*SYM=HZEN
.SUBCKT AZ23C47  1 2
*        Terminals    A   K
D1 1 2 DF
DZ 3 1 DR
VZ 2 3 44.3
.MODEL DF D ( IS=2.63p RS=27.2 N=1.10
+ CJO=16.3p VJ=1.00 M=0.330 TT=50.1n )
.MODEL DR D ( IS=5.26e-016 RS=84.5 N=3.00 )
.ENDS

*SRC=AZ23C4V3;DI_AZ23C4V3;Diodes;Zener <=10V; 4.30V  0.300W   Diodes Inc. Per node.  Device contains two
*SYM=HZEN
.SUBCKT AZ23C4V3  1 2
*        Terminals    A   K
D1 1 2 DF
DZ 3 1 DR
VZ 2 3 1.77
.MODEL DF D ( IS=28.7p RS=34.0 N=1.10
+ CJO=357p VJ=0.750 M=0.330 TT=50.1n )
.MODEL DR D ( IS=5.75f RS=79.5 N=3.00 )
.ENDS

*SRC=AZ23C4V7;DI_AZ23C4V7;Diodes;Zener <=10V; 4.70V  0.300W   Diodes Inc. Per node.  Device contains two
*SYM=HZEN
.SUBCKT AZ23C4V7  1 2
*        Terminals    A   K
D1 1 2 DF
DZ 3 1 DR
VZ 2 3 2.24
.MODEL DF D ( IS=26.3p RS=33.7 N=1.10
+ CJO=350p VJ=0.750 M=0.330 TT=50.1n )
.MODEL DR D ( IS=5.26f RS=62.5 N=3.00 )
.ENDS

*SRC=AZ23C51;DI_AZ23C51;Diodes;Zener >50V; 51.0V  0.300W   Diodes Inc. Per node.  Device contains two
*SYM=HZEN
.SUBCKT AZ23C51  1 2
*        Terminals    A   K
D1 1 2 DF
DZ 3 1 DR
VZ 2 3 48.2
.MODEL DF D ( IS=2.42p RS=26.9 N=1.10
+ CJO=16.2p VJ=1.00 M=0.330 TT=50.1n )
.MODEL DR D ( IS=4.85e-016 RS=84.5 N=3.00 )
.ENDS

*SRC=AZ23C5V1;DI_AZ23C5V1;Diodes;Zener <=10V; 5.10V  0.300W   Diodes Inc. Per node.  Device contains two
*SYM=HZEN
.SUBCKT AZ23C5V1  1 2
*        Terminals    A   K
D1 1 2 DF
DZ 3 1 DR
VZ 2 3 2.73
.MODEL DF D ( IS=24.2p RS=33.5 N=1.10
+ CJO=132p VJ=0.750 M=0.330 TT=50.1n )
.MODEL DR D ( IS=4.85f RS=44.5 N=3.00 )
.ENDS

*SRC=AZ23C6V2;DI_AZ23C6V2;Diodes;Zener <=10V; 6.20V  0.300W   Diodes Inc. Per node.  Device contains two
*SYM=HZEN
.SUBCKT AZ23C6V2  1 2
*        Terminals    A   K
D1 1 2 DF
DZ 3 1 DR
VZ 2 3 5.12
.MODEL DF D ( IS=19.9p RS=32.9 N=1.10
+ CJO=79.4p VJ=0.750 M=0.330 TT=50.1n )
.MODEL DR D ( IS=3.99f RS=2.30 N=1.49 )
.ENDS

*SRC=AZ23C6V8;DI_AZ23C6V8;Diodes;Zener <=10V; 6.80V  0.300W   Diodes Inc. Per node.  Device contains two
*SYM=HZEN
.SUBCKT AZ23C6V8  1 2
*        Terminals    A   K
D1 1 2 DF
DZ 3 1 DR
VZ 2 3 5.93
.MODEL DF D ( IS=18.2p RS=32.7 N=1.10
+ CJO=72.7p VJ=0.750 M=0.330 TT=50.1n )
.MODEL DR D ( IS=3.64f RS=1.84 N=1.19 )
.ENDS

*SRC=AZ23C7V5;DI_AZ23C7V5;Diodes;Zener <=10V; 7.50V  0.300W   Diodes Inc. Per node.  Device contains two
*SYM=HZEN
.SUBCKT AZ23C7V5  1 2
*        Terminals    A   K
D1 1 2 DF
DZ 3 1 DR
VZ 2 3 6.74
.MODEL DF D ( IS=16.5p RS=32.4 N=1.10
+ CJO=59.5p VJ=0.750 M=0.330 TT=50.1n )
.MODEL DR D ( IS=3.30f RS=1.61 N=1.04 )
.ENDS

*SRC=AZ23C8V2;DI_AZ23C8V2;Diodes;Zener <=10V; 8.20V  0.300W   Diodes Inc. Per node.  Device contains two
*SYM=HZEN
.SUBCKT AZ23C8V2  1 2
*        Terminals    A   K
D1 1 2 DF
DZ 3 1 DR
VZ 2 3 7.43
.MODEL DF D ( IS=15.1p RS=32.1 N=1.10
+ CJO=54.2p VJ=0.750 M=0.330 TT=50.1n )
.MODEL DR D ( IS=3.01f RS=1.61 N=1.04 )
.ENDS

*SRC=AZ23C9V1;DI_AZ23C9V1;Diodes;Zener <=10V; 9.10V  0.300W   Diodes Inc. Per node.  Device contains two
*SYM=HZEN
.SUBCKT AZ23C9V1  1 2
*        Terminals    A   K
D1 1 2 DF
DZ 3 1 DR
VZ 2 3 8.00
.MODEL DF D ( IS=13.6p RS=31.8 N=1.10
+ CJO=48.9p VJ=0.750 M=0.330 TT=50.1n )
.MODEL DR D ( IS=2.72f RS=2.30 N=1.49 )
.ENDS

*SRC=AZ23C10W;DI_AZ23C10W;Diodes;Zener <=10V; 10.0V  0.200W   Diodes Inc. Per node.  Device contains two
*SYM=HZEN
.SUBCKT AZ23C10W  1 2
*        Terminals    A   K
D1 1 2 DF
DZ 3 1 DR
VZ 2 3 8.32
.MODEL DF D ( IS=8.24p RS=30.4 N=1.10
+ CJO=46.3p VJ=0.750 M=0.330 TT=50.1n )
.MODEL DR D ( IS=1.65f RS=3.45 N=2.23 )
.ENDS

*SRC=AZ23C18W;DI_AZ23C18W;Diodes;Zener 10V-50V; 18.0V  0.200W   Diodes Inc. Per node.  Device contains two
*SYM=HZEN
.SUBCKT AZ23C18W  1 2
*        Terminals    A   K
D1 1 2 DF
DZ 3 1 DR
VZ 2 3 15.5
.MODEL DF D ( IS=4.58p RS=28.7 N=1.10
+ CJO=26.4p VJ=1.00 M=0.330 TT=50.1n )
.MODEL DR D ( IS=9.16e-016 RS=34.5 N=3.00 )
.ENDS

*SRC=AZ23C5V6W;DI_AZ23C5V6W;Diodes;Zener <=10V; 5.60V  0.200W   Diodes Inc. Per node.  Device contains two
*SYM=HZEN
.SUBCKT AZ23C5V6W  1 2
*        Terminals    A   K
D1 1 2 DF
DZ 3 1 DR
VZ 2 3 3.29
.MODEL DF D ( IS=14.7p RS=32.1 N=1.10
+ CJO=102p VJ=0.750 M=0.330 TT=50.1n )
.MODEL DR D ( IS=2.94f RS=24.5 N=3.00 )
.ENDS

*SRC=AZ23C6V8W;DI_AZ23C6V8W;Diodes;Zener <=10V; 6.80V  0.200W   Diodes Inc. Per node.  Device contains two
*SYM=HZEN
.SUBCKT AZ23C6V8W  1 2
*        Terminals    A   K
D1 1 2 DF
DZ 3 1 DR
VZ 2 3 5.15
.MODEL DF D ( IS=12.1p RS=31.5 N=1.10
+ CJO=72.7p VJ=0.750 M=0.330 TT=50.1n )
.MODEL DR D ( IS=2.42f RS=3.45 N=2.23 )
.ENDS

*SRC=BZT52C10T;DI_BZT52C10T;Diodes;Zener <=10V; 10.0V  0.500W   Diodes Inc. Zener 
*SYM=HZEN 
.SUBCKT BZT52C10T  1 2 
*        Terminals    A   K 
D1 1 2 DF 
DZ 3 1 DR 
VZ 2 3 7.84 
.MODEL DF D ( IS=20.6p RS=1.22 N=1.10 
+ CJO=45.6p VJ=0.750 M=0.330 TT=50.1n ) 
.MODEL DR D ( IS=4.12f RS=4.60 N=2.97 ) 
.ENDS

*SRC=BZT52C11T;DI_BZT52C11T;Diodes;Zener 10V-50V; 11.0V  0.500W   Diodes Inc.
*SYM=HZEN
.SUBCKT BZT52C11T  1 2
*        Terminals    A   K
D1 1 2 DF
DZ 3 1 DR
VZ 2 3 8.83
.MODEL DF D ( IS=18.7p RS=32.7 N=1.10
+ CJO=44.0p VJ=1.00 M=0.330 TT=50.1n )
.MODEL DR D ( IS=3.75f RS=4.60 N=2.97)
.ENDS

*SRC=BZT52C12T;DI_BZT52C12T;Diodes;Zener 10V-50V; 12.0V  0.500W   Diodes Inc.
*SYM=HZEN
.SUBCKT BZT52C12T  1 2
*        Terminals    A   K
D1 1 2 DF
DZ 3 1 DR
VZ 2 3 9.78
.MODEL DF D ( IS=17.2p RS=32.5 N=1.10
+ CJO=42.7p VJ=1.00 M=0.330 TT=50.1n )
.MODEL DR D ( IS=3.43f RS=9.46 N=3.00)
.ENDS

*SRC=BZT52C13T;DI_BZT52C13T;Diodes;Zener 10V-50V; 13.0V  0.500W   Diodes Inc. Zener 
*SYM=HZEN 
.SUBCKT BZT52C13T  1 2 
*        Terminals    A   K 
D1 1 2 DF 
DZ 3 1 DR 
VZ 2 3 12.4 
.MODEL DF D ( IS=15.8p RS=1.24 N=1.10 
+ CJO=51.5p VJ=1.00 M=0.330 TT=50.1n ) 
.MODEL DR D ( IS=3.17f RS=1.26 N=0.814 ) 
.ENDS
