* source EPC1001DEV1
.subckt EPC1001 gatein drainin sourcein
.param aWg=1077  k1=36.012 k2=1.85 k4=1.7 
+	ags1=7.49e-10 ags2=8.65e-10 ags3=7.89e-12 ags4=1.25 ags5=.156 
+	agd1=4.9e-11  agd2=2.65e-10 agd3=-1.73 agd4=4.61 agd5=.197e-12
+	asd1=300E-12 asd2=200E-12 asd3=-50 asd4=40 asd5=610E-12 asd6=-12.5 asd7=3.67
+	dgs1=4.3e-7 dgs2=2.6e-13 dgs3=.8 dgs4=.23  
+	aITc=.0025 aSTc=.0005


rd drainin drain .0001
rs source sourcein .0001
rg gatein gate {(.6*1077/aWg)}


*Large resistors to aid convergence
Rcsdconv drain source {100000Meg/aWg}
Rcgsconv gate source {100000Meg/aWg}
Rcgdconv gate drain {100000Meg/aWg}


gswitch drain source Value {if( v(drain,source)>0.0,
+	((1-aITc*(Temp-25))*k1*ags5*log(1.0+exp((v(gate,source)-k2)/ags5))*(1-exp(-(k4*(1-aSTc*(Temp-25)))*v(drain,source)))),
+ 	(-1*(1-aITc*(Temp-25))*k1*ags5*log(1.0+exp((v(gate,drain)-k2)/ags5))*(1-exp(-(k4*(1-aSTc*(Temp-25)))*v(source,drain))))
+	 )}


ggsdiode gate source VALUE {if( v(gate,source) < 10,
+	0.5*aWg/1077*(dgs1*(exp((v(gate,source))/dgs3)-1)+dgs2*(exp((v(gate,source))/dgs4)-1)),
+	0.5*aWg/1077*(dgs1*(exp((10)/dgs3)-1)+dgs2*(exp((10)/dgs4)-1)) ) }


ggddiode gate drain Value {if( v(gate,drain) < 10,
+	0.5*aWg/1077*(dgs1*(exp((v(gate,drain))/dgs3)-1)+dgs2*(exp((v(gate,drain))/dgs4)-1)),
+	0.5*aWg/1077*(dgs1*(exp((10)/dgs3)-1)+dgs2*(exp((10)/dgs4)-1)) ) }




*Parasitic gate-source capacitance
*C_GS         gate source  {ags1}
*Model for voltage dependent gate-source capacitance
E_IGS tl_gs bl_gs value = {ags2*ags5*log(1.0 + exp( (v(gate,source)-ags4)/ags5 ) )+ 
+	ags1*v(gate,source) + ags3*0.5*v(gate,source)*v(gate,source)}
V_INGS br_gs bl_gs 0.0
C_IGS br_gs tr_gs {1.0e-6}
R_IGS tr_gs tl_gs {1.0e-4}
F_IGS gate source V_INGS 1e6
R_IGS2 bl_gs source 100Meg

*Parasitic gate-drain capacitance 
*C_GD         gate drain  {agd1}
*Model for voltage dependent gate-drain capacitance
E_IGD tl_gd bl_gd value = {agd2*agd4*log(1.0 + exp( (v(gate,drain)-agd3)/agd4 ) )+ 
+	agd1*v(gate,drain) + agd5*0.5*v(gate,drain)*v(gate,drain) }
V_INGD br_gd bl_gd 0.0
C_IGD br_gd tr_gd {1.0e-6}
R_IGD tr_gd tl_gd {1.0e-4}
F_IGD gate drain V_INGD 1e6
R_IGD2 bl_gd drain 100Meg

*Parasitic source-drain capacitance 
*C_SD         source drain  {asd1}
*Model for voltage dependent source-drain capacitance
E_ISD tl_sd bl_sd value = {asd2*asd4*log(1 + exp( (v(source,drain)-asd3)/asd4) ) + 
+	asd5*asd7*log( 1 + exp((v(source,drain)-asd6)/asd7)  ) +
+	asd1*v(source,drain) }
V_INSD br_sd bl_sd 0.0
C_ISD br_sd tr_sd {1.0E-6}
R_ISD tr_sd tl_sd {1.0e-4}
F_ISD source drain V_INSD 1e6
R_ISD2 bl_sd drain 100Meg

.ends

* source EPC1005DEV1
.subckt EPC1005 gatein drainin sourcein
.param aWg=1077  k1=36.012 k2=1.85 k4=2.5 
+	ags1=7.49e-10 ags2=8.65e-10 ags3=7.89e-12 ags4=1.25 ags5=.156 
+	agd1=4.9e-11  agd2=2.65e-10 agd3=-1.73 agd4=4.61 agd5=.197e-12
+	asd1=320E-12 asd2=200E-12 asd3=-30 asd4=40 asd5=600E-12 asd6=-12.5 asd7=3.67
+	dgs1=4.3e-7 dgs2=2.6e-13 dgs3=.8 dgs4=.23  
+	aITc=.0025 aSTc=.0005


rd drainin drain .0018
rs source sourcein .0001
rg gatein gate {(.6*1077/aWg)}


*Large resistors to aid convergence
Rcsdconv drain source {100000Meg/aWg}
Rcgsconv gate source {100000Meg/aWg}
Rcgdconv gate drain {100000Meg/aWg}


gswitch drain source Value {if( v(drain,source)>0.0,
+	((1-aITc*(Temp-25))*k1*ags5*log(1.0+exp((v(gate,source)-k2)/ags5))*(1-exp(-(k4*(1-aSTc*(Temp-25)))*v(drain,source)))),
+ 	(-1*(1-aITc*(Temp-25))*k1*ags5*log(1.0+exp((v(gate,drain)-k2)/ags5))*(1-exp(-(k4*(1-aSTc*(Temp-25)))*v(source,drain))))
+	 )}


ggsdiode gate source VALUE {if( v(gate,source) < 10,
+	0.5*aWg/1077*(dgs1*(exp((v(gate,source))/dgs3)-1)+dgs2*(exp((v(gate,source))/dgs4)-1)),
+	0.5*aWg/1077*(dgs1*(exp((10)/dgs3)-1)+dgs2*(exp((10)/dgs4)-1)) ) }


ggddiode gate drain Value {if( v(gate,drain) < 10,
+	0.5*aWg/1077*(dgs1*(exp((v(gate,drain))/dgs3)-1)+dgs2*(exp((v(gate,drain))/dgs4)-1)),
+	0.5*aWg/1077*(dgs1*(exp((10)/dgs3)-1)+dgs2*(exp((10)/dgs4)-1)) ) }



*Parasitic gate-source capacitance
*C_GS         gate source  {ags1}
*Model for voltage dependent gate-source capacitance
E_IGS tl_gs bl_gs value = {ags2*ags5*log(1.0 + exp( (v(gate,source)-ags4)/ags5 ) )+ 
+	ags1*v(gate,source) + ags3*0.5*v(gate,source)*v(gate,source)}
V_INGS br_gs bl_gs 0.0
C_IGS br_gs tr_gs {1.0e-6}
R_IGS tr_gs tl_gs {1.0e-4}
F_IGS gate source V_INGS 1e6
R_IGS2 bl_gs source 100Meg

*Parasitic gate-drain capacitance 
*C_GD         gate drain  {agd1}
*Model for voltage dependent gate-drain capacitance
E_IGD tl_gd bl_gd value = {agd2*agd4*log(1.0 + exp( (v(gate,drain)-agd3)/agd4 ) )+ 
+	agd1*v(gate,drain) + agd5*0.5*v(gate,drain)*v(gate,drain) }
V_INGD br_gd bl_gd 0.0
C_IGD br_gd tr_gd {1.0e-6}
R_IGD tr_gd tl_gd {1.0e-4}
F_IGD gate drain V_INGD 1e6
R_IGD2 bl_gd drain 100Meg

*Parasitic source-drain capacitance 
*C_SD         source drain  {asd1}
*Model for voltage dependent source-drain capacitance
E_ISD tl_sd bl_sd value = {asd2*asd4*log(1 + exp( (v(source,drain)-asd3)/asd4) ) + 
+	asd5*asd7*log( 1 + exp((v(source,drain)-asd6)/asd7)  ) +
+	asd1*v(source,drain) }
V_INSD br_sd bl_sd 0.0
C_ISD br_sd tr_sd {1.0E-6}
R_ISD tr_sd tl_sd {1.0e-4}
F_ISD source drain V_INSD 1e6
R_ISD2 bl_sd drain 100Meg

.ends

* source EPC1007DEV1
.subckt EPC1007 gatein drainin sourcein
.param aWg=264  k1=9.68 k2=1.85 k4=1.7 
+	ags1=1.87e-10 ags2=2.16e-10 ags3=1.97e-12 ags4=1.25 ags5=.156 
+	agd1=1.23e-11  agd2=0.625e-10 agd3=-2.25 agd4=4.47 agd5=.05e-12
+	asd1=75E-12 asd2=50E-12 asd3=-50 asd4=40 asd5=150E-12 asd6=-12.5 asd7=3.67
+	dgs1=4.3e-7 dgs2=2.6e-13 dgs3=.8 dgs4=.23  
+	aITc=.0025 aSTc=.0005


rd drainin drain .0024
rs source sourcein .0001
rg gatein gate {(.6*1077/aWg)}


*Large resistors to aid convergence
Rcsdconv drain source {100000Meg/aWg}
Rcgsconv gate source {100000Meg/aWg}
Rcgdconv gate drain {100000Meg/aWg}


gswitch drain source Value {if( v(drain,source)>0.0,
+	((1-aITc*(Temp-25))*k1*ags5*log(1.0+exp((v(gate,source)-k2)/ags5))*(1-exp(-(k4*(1-aSTc*(Temp-25)))*v(drain,source)))),
+ 	(-1*(1-aITc*(Temp-25))*k1*ags5*log(1.0+exp((v(gate,drain)-k2)/ags5))*(1-exp(-(k4*(1-aSTc*(Temp-25)))*v(source,drain))))
+	 )}


ggsdiode gate source VALUE {if( v(gate,source) < 10,
+	0.5*aWg/1077*(dgs1*(exp((v(gate,source))/dgs3)-1)+dgs2*(exp((v(gate,source))/dgs4)-1)),
+	0.5*aWg/1077*(dgs1*(exp((10)/dgs3)-1)+dgs2*(exp((10)/dgs4)-1)) ) }


ggddiode gate drain Value {if( v(gate,drain) < 10,
+	0.5*aWg/1077*(dgs1*(exp((v(gate,drain))/dgs3)-1)+dgs2*(exp((v(gate,drain))/dgs4)-1)),
+	0.5*aWg/1077*(dgs1*(exp((10)/dgs3)-1)+dgs2*(exp((10)/dgs4)-1)) ) }



*Parasitic gate-source capacitance
*C_GS         gate source  {ags1}
*Model for voltage dependent gate-source capacitance
E_IGS tl_gs bl_gs value = {ags2*ags5*log(1.0 + exp( (v(gate,source)-ags4)/ags5 ) )+ 
+	ags1*v(gate,source) + ags3*0.5*v(gate,source)*v(gate,source)}
V_INGS br_gs bl_gs 0.0
C_IGS br_gs tr_gs {1.0e-6}
R_IGS tr_gs tl_gs {1.0e-4}
F_IGS gate source V_INGS 1e6
R_IGS2 bl_gs source 100Meg

*Parasitic gate-drain capacitance 
*C_GD         gate drain  {agd1}
*Model for voltage dependent gate-drain capacitance
E_IGD tl_gd bl_gd value = {agd2*agd4*log(1.0 + exp( (v(gate,drain)-agd3)/agd4 ) )+ 
+	agd1*v(gate,drain) + agd5*0.5*v(gate,drain)*v(gate,drain) }
V_INGD br_gd bl_gd 0.0
C_IGD br_gd tr_gd {1.0e-6}
R_IGD tr_gd tl_gd {1.0e-4}
F_IGD gate drain V_INGD 1e6
R_IGD2 bl_gd drain 100Meg

*Parasitic source-drain capacitance 
*C_SD         source drain  {asd1}
*Model for voltage dependent source-drain capacitance
E_ISD tl_sd bl_sd value = {asd2*asd4*log(1 + exp( (v(source,drain)-asd3)/asd4) ) + 
+	asd5*asd7*log( 1 + exp((v(source,drain)-asd6)/asd7)  ) +
+	asd1*v(source,drain) }
V_INSD br_sd bl_sd 0.0
C_ISD br_sd tr_sd {1.0E-6}
R_ISD tr_sd tl_sd {1.0e-4}
F_ISD source drain V_INSD 1e6
R_ISD2 bl_sd drain 100Meg

.ends

* source ECP1009DEV1
.subckt EPC1009 gatein drainin sourcein
.param aWg=264  k1=9.68 k2=1.85 k4=2.5 
+	ags1=1.87e-10 ags2=2.16e-10 ags3=1.97e-12 ags4=1.25 ags5=.156 
+	agd1=1.23e-11  agd2=0.625e-10 agd3=-2.25 agd4=4.47 agd5=.05e-12
+	asd1=75E-12 asd2=60E-12 asd3=-30 asd4=40 asd5=150E-12 asd6=-11.5 asd7=3.67
+	dgs1=4.3e-7 dgs2=2.6e-13 dgs3=.8 dgs4=.23  
+	aITc=.0025 aSTc=.0005


rd drainin drain .0093
rs source sourcein .0001
rg gatein gate {(.6*1077/aWg)}


*Large resistors to aid convergence
Rcsdconv drain source {100000Meg/aWg}
Rcgsconv gate source {100000Meg/aWg}
Rcgdconv gate drain {100000Meg/aWg}


gswitch drain source Value {if( v(drain,source)>0.0,
+	((1-aITc*(Temp-25))*k1*ags5*log(1.0+exp((v(gate,source)-k2)/ags5))*(1-exp(-(k4*(1-aSTc*(Temp-25)))*v(drain,source)))),
+ 	(-1*(1-aITc*(Temp-25))*k1*ags5*log(1.0+exp((v(gate,drain)-k2)/ags5))*(1-exp(-(k4*(1-aSTc*(Temp-25)))*v(source,drain))))
+	 )}


ggsdiode gate source VALUE {if( v(gate,source) < 10,
+	0.5*aWg/1077*(dgs1*(exp((v(gate,source))/dgs3)-1)+dgs2*(exp((v(gate,source))/dgs4)-1)),
+	0.5*aWg/1077*(dgs1*(exp((10)/dgs3)-1)+dgs2*(exp((10)/dgs4)-1)) ) }


ggddiode gate drain Value {if( v(gate,drain) < 10,
+	0.5*aWg/1077*(dgs1*(exp((v(gate,drain))/dgs3)-1)+dgs2*(exp((v(gate,drain))/dgs4)-1)),
+	0.5*aWg/1077*(dgs1*(exp((10)/dgs3)-1)+dgs2*(exp((10)/dgs4)-1)) ) }



*Parasitic gate-source capacitance
*C_GS         gate source  {ags1}
*Model for voltage dependent gate-source capacitance
E_IGS tl_gs bl_gs value = {ags2*ags5*log(1.0 + exp( (v(gate,source)-ags4)/ags5 ) )+ 
+	ags1*v(gate,source) + ags3*0.5*v(gate,source)*v(gate,source)}
V_INGS br_gs bl_gs 0.0
C_IGS br_gs tr_gs {1.0e-6}
R_IGS tr_gs tl_gs {1.0e-4}
F_IGS gate source V_INGS 1e6
R_IGS2 bl_gs source 100Meg

*Parasitic gate-drain capacitance 
*C_GD         gate drain  {agd1}
*Model for voltage dependent gate-drain capacitance
E_IGD tl_gd bl_gd value = {agd2*agd4*log(1.0 + exp( (v(gate,drain)-agd3)/agd4 ) )+ 
+	agd1*v(gate,drain) + agd5*0.5*v(gate,drain)*v(gate,drain) }
V_INGD br_gd bl_gd 0.0
C_IGD br_gd tr_gd {1.0e-6}
R_IGD tr_gd tl_gd {1.0e-4}
F_IGD gate drain V_INGD 1e6
R_IGD2 bl_gd drain 100Meg

*Parasitic source-drain capacitance 
*C_SD         source drain  {asd1}
*Model for voltage dependent source-drain capacitance
E_ISD tl_sd bl_sd value = {asd2*asd4*log(1 + exp( (v(source,drain)-asd3)/asd4) ) + 
+	asd5*asd7*log( 1 + exp((v(source,drain)-asd6)/asd7)  ) +
+	asd1*v(source,drain) }
V_INSD br_sd bl_sd 0.0
C_ISD br_sd tr_sd {1.0E-6}
R_ISD tr_sd tl_sd {1.0e-4}
F_ISD source drain V_INSD 1e6
R_ISD2 bl_sd drain 100Meg

.ends

* source EPC1010DEV1
.subckt EPC1010 gatein drainin sourcein
.param aWg=599  k1=28 k2=1.85 k4=1 
+	ags1=4.06e-10 ags2=4.69e-10 ags3=4.28e-12 ags4=1.25 ags5=.156 
+	agd1=3.15e-11  agd2=1.24e-10 agd3=-1.95 agd4=4.01 agd5=.022e-12
+	asd1=130E-12 asd2=300E-12 asd3=-100 asd4=60 asd5=180E-12 asd6=-15 asd7=3.0
+	dgs1=4.3e-7 dgs2=2.6e-13 dgs3=.8 dgs4=.23  
+	aITc=.0025 aSTc=.0005


rd drainin drain .0057
rs source sourcein .0001
rg gatein gate {(.6*1077/aWg)}


*Large resistors to aid convergence
Rcsdconv drain source {100000Meg/aWg}
Rcgsconv gate source {100000Meg/aWg}
Rcgdconv gate drain {100000Meg/aWg}


gswitch drain source Value {if( v(drain,source)>0.0,
+	((1-aITc*(Temp-25))*k1*ags5*log(1.0+exp((v(gate,source)-k2)/ags5))*(1-exp(-(k4*(1-aSTc*(Temp-25)))*v(drain,source)))),
+ 	(-1*(1-aITc*(Temp-25))*k1*ags5*log(1.0+exp((v(gate,drain)-k2)/ags5))*(1-exp(-(k4*(1-aSTc*(Temp-25)))*v(source,drain))))
+	 )}


ggsdiode gate source VALUE {if( v(gate,source) < 10,
+	0.5*aWg/1077*(dgs1*(exp((v(gate,source))/dgs3)-1)+dgs2*(exp((v(gate,source))/dgs4)-1)),
+	0.5*aWg/1077*(dgs1*(exp((10)/dgs3)-1)+dgs2*(exp((10)/dgs4)-1)) ) }


ggddiode gate drain Value {if( v(gate,drain) < 10,
+	0.5*aWg/1077*(dgs1*(exp((v(gate,drain))/dgs3)-1)+dgs2*(exp((v(gate,drain))/dgs4)-1)),
+	0.5*aWg/1077*(dgs1*(exp((10)/dgs3)-1)+dgs2*(exp((10)/dgs4)-1)) ) }



*Parasitic gate-source capacitance
*C_GS         gate source  {ags1}
*Model for voltage dependent gate-source capacitance
E_IGS tl_gs bl_gs value = {ags2*ags5*log(1.0 + exp( (v(gate,source)-ags4)/ags5 ) )+ 
+	ags1*v(gate,source) + ags3*0.5*v(gate,source)*v(gate,source)}
V_INGS br_gs bl_gs 0.0
C_IGS br_gs tr_gs {1.0e-6}
R_IGS tr_gs tl_gs {1.0e-4}
F_IGS gate source V_INGS 1e6
R_IGS2 bl_gs source 100Meg

*Parasitic gate-drain capacitance 
*C_GD         gate drain  {agd1}
*Model for voltage dependent gate-drain capacitance
E_IGD tl_gd bl_gd value = {agd2*agd4*log(1.0 + exp( (v(gate,drain)-agd3)/agd4 ) )+ 
+	agd1*v(gate,drain) + agd5*0.5*v(gate,drain)*v(gate,drain) }
V_INGD br_gd bl_gd 0.0
C_IGD br_gd tr_gd {1.0e-6}
R_IGD tr_gd tl_gd {1.0e-4}
F_IGD gate drain V_INGD 1e6
R_IGD2 bl_gd drain 100Meg

*Parasitic source-drain capacitance 
*C_SD         source drain  {asd1}
*Model for voltage dependent source-drain capacitance
E_ISD tl_sd bl_sd value = {asd2*asd4*log(1 + exp( (v(source,drain)-asd3)/asd4) ) + 
+	asd5*asd7*log( 1 + exp((v(source,drain)-asd6)/asd7)  ) +
+	asd1*v(source,drain) }
V_INSD br_sd bl_sd 0.0
C_ISD br_sd tr_sd {1.0E-6}
R_ISD tr_sd tl_sd {1.0e-4}
F_ISD source drain V_INSD 1e6
R_ISD2 bl_sd drain 100Meg

.ends

* source EPC1011DEV1
.subckt EPC1011 gatein drainin sourcein
.param aWg=599  k1=28 k2=1.85 k4=1.5 
+	ags1=4.06e-10 ags2=4.69e-10 ags3=4.28e-12 ags4=1.25 ags5=.156 
+	agd1=3.15e-11  agd2=1.24e-10 agd3=-1.95 agd4=4.01 agd5=.022e-12
+	asd1=185E-12 asd2=250E-12 asd3=-75 asd4=50.00 asd5=1.6e-10 asd6=-15 asd7=3.0
+	dgs1=4.3e-7 dgs2=2.6e-13 dgs3=.8 dgs4=.23  
+	aITc=.0025 aSTc=.0005


rd drainin drain .0098
rs source sourcein .0001
rg gatein gate {(.6*1077/aWg)}


*Large resistors to aid convergence
Rcsdconv drain source {100000Meg/aWg}
Rcgsconv gate source {100000Meg/aWg}
Rcgdconv gate drain {100000Meg/aWg}


gswitch drain source Value {if( v(drain,source)>0.0,
+	((1-aITc*(Temp-25))*k1*ags5*log(1.0+exp((v(gate,source)-k2)/ags5))*(1-exp(-(k4*(1-aSTc*(Temp-25)))*v(drain,source)))),
+ 	(-1*(1-aITc*(Temp-25))*k1*ags5*log(1.0+exp((v(gate,drain)-k2)/ags5))*(1-exp(-(k4*(1-aSTc*(Temp-25)))*v(source,drain))))
+	 )}


ggsdiode gate source VALUE {if( v(gate,source) < 10,
+	0.5*aWg/1077*(dgs1*(exp((v(gate,source))/dgs3)-1)+dgs2*(exp((v(gate,source))/dgs4)-1)),
+	0.5*aWg/1077*(dgs1*(exp((10)/dgs3)-1)+dgs2*(exp((10)/dgs4)-1)) ) }


ggddiode gate drain Value {if( v(gate,drain) < 10,
+	0.5*aWg/1077*(dgs1*(exp((v(gate,drain))/dgs3)-1)+dgs2*(exp((v(gate,drain))/dgs4)-1)),
+	0.5*aWg/1077*(dgs1*(exp((10)/dgs3)-1)+dgs2*(exp((10)/dgs4)-1)) ) }



*Parasitic gate-source capacitance
*C_GS         gate source  {ags1}
*Model for voltage dependent gate-source capacitance
E_IGS tl_gs bl_gs value = {ags2*ags5*log(1.0 + exp( (v(gate,source)-ags4)/ags5 ) )+ 
+	ags1*v(gate,source) + ags3*0.5*v(gate,source)*v(gate,source)}
V_INGS br_gs bl_gs 0.0
C_IGS br_gs tr_gs {1.0e-6}
R_IGS tr_gs tl_gs {1.0e-4}
F_IGS gate source V_INGS 1e6
R_IGS2 bl_gs source 100Meg

*Parasitic gate-drain capacitance 
*C_GD         gate drain  {agd1}
*Model for voltage dependent gate-drain capacitance
E_IGD tl_gd bl_gd value = {agd2*agd4*log(1.0 + exp( (v(gate,drain)-agd3)/agd4 ) )+ 
+	agd1*v(gate,drain) + agd5*0.5*v(gate,drain)*v(gate,drain) }
V_INGD br_gd bl_gd 0.0
C_IGD br_gd tr_gd {1.0e-6}
R_IGD tr_gd tl_gd {1.0e-4}
F_IGD gate drain V_INGD 1e6
R_IGD2 bl_gd drain 100Meg

*Parasitic source-drain capacitance 
*C_SD         source drain  {asd1}
*Model for voltage dependent source-drain capacitance
E_ISD tl_sd bl_sd value = {asd2*asd4*log(1 + exp( (v(source,drain)-asd3)/asd4) ) + 
+	asd5*asd7*log( 1 + exp((v(source,drain)-asd6)/asd7)  ) +
+	asd1*v(source,drain) }
V_INSD br_sd bl_sd 0.0
C_ISD br_sd tr_sd {1.0E-6}
R_ISD tr_sd tl_sd {1.0e-4}
F_ISD source drain V_INSD 1e6
R_ISD2 bl_sd drain 100Meg

.ends

* source EPC1012DEV1
.subckt EPC1012 gatein drainin sourcein
.param aWg=146  k1=7 k2=1.85 k4=1.0 
+	ags1=1.02e-10 ags2=1.17e-10 ags3=1.07e-12 ags4=1.25 ags5=.156 
+	agd1=0.785e-11  agd2=0.34e-10 agd3=-1.25 agd4=4.18 agd5=.00513e-12
+	asd1=20E-12 asd2=100e-12  asd3=-100 asd4=70.00 asd5=0.4e-10 asd6=-15 asd7=3.0
+	dgs1=4.3e-7 dgs2=2.6e-13 dgs3=.8 dgs4=.23  
+	aITc=.0025 aSTc=.0005


rd drainin drain .0212
rs source sourcein .0001
rg gatein gate {(.6*1077/aWg)}


*Large resistors to aid convergence
Rcsdconv drain source {100000Meg/aWg}
Rcgsconv gate source {100000Meg/aWg}
Rcgdconv gate drain {100000Meg/aWg}


gswitch drain source Value {if( v(drain,source)>0.0,
+	((1-aITc*(Temp-25))*k1*ags5*log(1.0+exp((v(gate,source)-k2)/ags5))*(1-exp(-(k4*(1-aSTc*(Temp-25)))*v(drain,source)))),
+ 	(-1*(1-aITc*(Temp-25))*k1*ags5*log(1.0+exp((v(gate,drain)-k2)/ags5))*(1-exp(-(k4*(1-aSTc*(Temp-25)))*v(source,drain))))
+	 )}


ggsdiode gate source VALUE {if( v(gate,source) < 10,
+	0.5*aWg/1077*(dgs1*(exp((v(gate,source))/dgs3)-1)+dgs2*(exp((v(gate,source))/dgs4)-1)),
+	0.5*aWg/1077*(dgs1*(exp((10)/dgs3)-1)+dgs2*(exp((10)/dgs4)-1)) ) }


ggddiode gate drain Value {if( v(gate,drain) < 10,
+	0.5*aWg/1077*(dgs1*(exp((v(gate,drain))/dgs3)-1)+dgs2*(exp((v(gate,drain))/dgs4)-1)),
+	0.5*aWg/1077*(dgs1*(exp((10)/dgs3)-1)+dgs2*(exp((10)/dgs4)-1)) ) }



*Parasitic gate-source capacitance
*C_GS         gate source  {ags1}
*Model for voltage dependent gate-source capacitance
E_IGS tl_gs bl_gs value = {ags2*ags5*log(1.0 + exp( (v(gate,source)-ags4)/ags5 ) )+ 
+	ags1*v(gate,source) + ags3*0.5*v(gate,source)*v(gate,source)}
V_INGS br_gs bl_gs 0.0
C_IGS br_gs tr_gs {1.0e-6}
R_IGS tr_gs tl_gs {1.0e-4}
F_IGS gate source V_INGS 1e6
R_IGS2 bl_gs source 100Meg

*Parasitic gate-drain capacitance 
*C_GD         gate drain  {agd1}
*Model for voltage dependent gate-drain capacitance
E_IGD tl_gd bl_gd value = {agd2*agd4*log(1.0 + exp( (v(gate,drain)-agd3)/agd4 ) )+ 
+	agd1*v(gate,drain) + agd5*0.5*v(gate,drain)*v(gate,drain) }
V_INGD br_gd bl_gd 0.0
C_IGD br_gd tr_gd {1.0e-6}
R_IGD tr_gd tl_gd {1.0e-4}
F_IGD gate drain V_INGD 1e6
R_IGD2 bl_gd drain 100Meg

*Parasitic source-drain capacitance 
*C_SD         source drain  {asd1}
*Model for voltage dependent source-drain capacitance
E_ISD tl_sd bl_sd value = {asd2*asd4*log(1 + exp( (v(source,drain)-asd3)/asd4) ) + 
+	asd5*asd7*log( 1 + exp((v(source,drain)-asd6)/asd7)  ) +
+	asd1*v(source,drain) }
V_INSD br_sd bl_sd 0.0
C_ISD br_sd tr_sd {1.0E-6}
R_ISD tr_sd tl_sd {1.0e-4}
F_ISD source drain V_INSD 1e6
R_ISD2 bl_sd drain 100Meg

.ends

* source EPC1013DEV1
.subckt EPC1013 gatein drainin sourcein
.param aWg=146  k1=7 k2=1.85 k4=1.5 
+	ags1=102e-12 ags2=117e-12 ags3=1.07e-12 ags4=1.25 ags5=.156 
+	agd1=07.85e-12  agd2=34e-12 agd3=-1.25 agd4=4.18 agd5=.00513e-12
+	asd1=35E-12 asd2=85e-12 asd3=-75 asd4=60.00 asd5=40e-12 asd6=-15 asd7=3.0
+	dgs1=4.3e-7 dgs2=2.6e-13 dgs3=.8 dgs4=.23  
+	aITc=.0025 aSTc=.0005


rd drainin drain .0374
rs source sourcein .0001
rg gatein gate {(.6*1077/aWg)}


*Large resistors to aid convergence
Rcsdconv drain source {100000Meg/aWg}
Rcgsconv gate source {100000Meg/aWg}
Rcgdconv gate drain {100000Meg/aWg}


gswitch drain source Value {if( v(drain,source)>0.0,
+	((1-aITc*(Temp-25))*k1*ags5*log(1.0+exp((v(gate,source)-k2)/ags5))*(1-exp(-(k4*(1-aSTc*(Temp-25)))*v(drain,source)))),
+ 	(-1*(1-aITc*(Temp-25))*k1*ags5*log(1.0+exp((v(gate,drain)-k2)/ags5))*(1-exp(-(k4*(1-aSTc*(Temp-25)))*v(source,drain))))
+	 )}


ggsdiode gate source VALUE {if( v(gate,source) < 10,
+	0.5*aWg/1077*(dgs1*(exp((v(gate,source))/dgs3)-1)+dgs2*(exp((v(gate,source))/dgs4)-1)),
+	0.5*aWg/1077*(dgs1*(exp((10)/dgs3)-1)+dgs2*(exp((10)/dgs4)-1)) ) }


ggddiode gate drain Value {if( v(gate,drain) < 10,
+	0.5*aWg/1077*(dgs1*(exp((v(gate,drain))/dgs3)-1)+dgs2*(exp((v(gate,drain))/dgs4)-1)),
+	0.5*aWg/1077*(dgs1*(exp((10)/dgs3)-1)+dgs2*(exp((10)/dgs4)-1)) ) }



*Parasitic gate-source capacitance
*C_GS         gate source  {ags1}
*Model for voltage dependent gate-source capacitance
E_IGS tl_gs bl_gs value = {ags2*ags5*log(1.0 + exp( (v(gate,source)-ags4)/ags5 ) )+ 
+	ags1*v(gate,source) + ags3*0.5*v(gate,source)*v(gate,source)}
V_INGS br_gs bl_gs 0.0
C_IGS br_gs tr_gs {1.0e-6}
R_IGS tr_gs tl_gs {1.0e-4}
F_IGS gate source V_INGS 1e6
R_IGS2 bl_gs source 100Meg

*Parasitic gate-drain capacitance 
*C_GD         gate drain  {agd1}
*Model for voltage dependent gate-drain capacitance
E_IGD tl_gd bl_gd value = {agd2*agd4*log(1.0 + exp( (v(gate,drain)-agd3)/agd4 ) )+ 
+	agd1*v(gate,drain) + agd5*0.5*v(gate,drain)*v(gate,drain) }
V_INGD br_gd bl_gd 0.0
C_IGD br_gd tr_gd {1.0e-6}
R_IGD tr_gd tl_gd {1.0e-4}
F_IGD gate drain V_INGD 1e6
R_IGD2 bl_gd drain 100Meg

*Parasitic source-drain capacitance 
*C_SD         source drain  {asd1}
*Model for voltage dependent source-drain capacitance
E_ISD tl_sd bl_sd value = {asd2*asd4*log(1 + exp( (v(source,drain)-asd3)/asd4) ) + 
+	asd5*asd7*log( 1 + exp((v(source,drain)-asd6)/asd7)  ) +
+	asd1*v(source,drain) }
V_INSD br_sd bl_sd 0.0
C_ISD br_sd tr_sd {1.0E-6}
R_ISD tr_sd tl_sd {1.0e-4}
F_ISD source drain V_INSD 1e6
R_ISD2 bl_sd drain 100Meg

.ends

* source EPC1015DEV1
.subckt EPC1015 gatein drainin sourcein
.param aWg=1566  k1=55.7 k2=1.85 k4=2.0 
+	ags1=1060e-12 ags2=840e-12 ags3=80e-12 ags4=1.25 ags5=.135 
+	agd1=50e-12  agd2=237e-12 agd3=-1.25 agd4=4.89 agd5=.0074e-12
+	asd1=120e-12 asd2=700e-12 asd3=-20 asd4=40.00 asd5=420e-12 asd6=-14.4 asd7=2.5
+	dgs1=4.3e-7 dgs2=2.6e-13 dgs3=.8 dgs4=.23  
+	aITc=.0025 aSTc=.0005


rd drainin drain .0001
rs source sourcein .0001
rg gatein gate {(.6*1077/aWg)}


*Large resistors to aid convergence
Rcsdconv drain source {100000Meg/aWg}
Rcgsconv gate source {100000Meg/aWg}
Rcgdconv gate drain {100000Meg/aWg}


gswitch drain source Value {if( v(drain,source)>0.0,
+	((1-aITc*(Temp-25))*k1*ags5*log(1.0+exp((v(gate,source)-k2)/ags5))*(1-exp(-(k4*(1-aSTc*(Temp-25)))*v(drain,source)))),
+ 	(-1*(1-aITc*(Temp-25))*k1*ags5*log(1.0+exp((v(gate,drain)-k2)/ags5))*(1-exp(-(k4*(1-aSTc*(Temp-25)))*v(source,drain))))
+	 )}


ggsdiode gate source VALUE {if( v(gate,source) < 10,
+	0.5*aWg/1077*(dgs1*(exp((v(gate,source))/dgs3)-1)+dgs2*(exp((v(gate,source))/dgs4)-1)),
+	0.5*aWg/1077*(dgs1*(exp((10)/dgs3)-1)+dgs2*(exp((10)/dgs4)-1)) ) }


ggddiode gate drain Value {if( v(gate,drain) < 10,
+	0.5*aWg/1077*(dgs1*(exp((v(gate,drain))/dgs3)-1)+dgs2*(exp((v(gate,drain))/dgs4)-1)),
+	0.5*aWg/1077*(dgs1*(exp((10)/dgs3)-1)+dgs2*(exp((10)/dgs4)-1)) ) }



*Parasitic gate-source capacitance
*C_GS         gate source  {ags1}
*Model for voltage dependent gate-source capacitance
E_IGS tl_gs bl_gs value = {ags2*ags5*log(1.0 + exp( (v(gate,source)-ags4)/ags5 ) )+ 
+	ags1*v(gate,source) + ags3*0.5*v(gate,source)*v(gate,source)}
V_INGS br_gs bl_gs 0.0
C_IGS br_gs tr_gs {1.0e-6}
R_IGS tr_gs tl_gs {1.0e-4}
F_IGS gate source V_INGS 1e6
R_IGS2 bl_gs source 100Meg

*Parasitic gate-drain capacitance 
*C_GD         gate drain  {agd1}
*Model for voltage dependent gate-drain capacitance
E_IGD tl_gd bl_gd value = {agd2*agd4*log(1.0 + exp( (v(gate,drain)-agd3)/agd4 ) )+ 
+	agd1*v(gate,drain) + agd5*0.5*v(gate,drain)*v(gate,drain) }
V_INGD br_gd bl_gd 0.0
C_IGD br_gd tr_gd {1.0e-6}
R_IGD tr_gd tl_gd {1.0e-4}
F_IGD gate drain V_INGD 1e6
R_IGD2 bl_gd drain 100Meg

*Parasitic source-drain capacitance 
*C_SD         source drain  {asd1}
*Model for voltage dependent source-drain capacitance
E_ISD tl_sd bl_sd value = {asd2*asd4*log(1 + exp( (v(source,drain)-asd3)/asd4) ) + 
+	asd5*asd7*log( 1 + exp((v(source,drain)-asd6)/asd7)  ) +
+	asd1*v(source,drain) }
V_INSD br_sd bl_sd 0.0
C_ISD br_sd tr_sd {1.0E-6}
R_ISD tr_sd tl_sd {1.0e-4}
F_ISD source drain V_INSD 1e6
R_ISD2 bl_sd drain 100Meg

.ends

* (C) Copyright Efficient Power Conversion Corporation. All rights reserved.
* **************************************************************************
* Version History:
*        1.02: Added the copyright statement.
*
* source EPC2001DEV1
.subckt EPC2001 gatein drainin sourcein
.param aWg=1077 A1=41.7998 k2=2.259866e+000 k3=1.2e-001 rpara=4.463059e-003  
+	aITc=5.486028e-003 arTc=-4.699671e-003 ax0Tc=0.75E-4 x0_0=-0.75 x0_1=1.10
+	dgs1=4.3e-7 dgs2=2.6e-13 dgs3=.8 dgs4=.23	  
+	ags1=8.6952e-010 ags2=5.3168e-010 ags3=1.9975e+000 ags4=2.8377e-001
+	ags5=-1.4751e-010 ags6=-7.5163e+000 ags7=7.2121e+000
+	agd1=1.4182e-011 agd2=2.1475e-010 agd3=-3.8030e+000 agd4=5.9551e+000
+	asd1=3.3621e-010 asd2=6.3080e-010 asd3=-1.2803e+001 asd4=2.2690e+000
+	asd5=2.5818e-010 asd6=-4.0599e+001 asd7=2.0638e+001

rd drainin drain {(0.75*rpara*(1-arTc*(Temp-25)))}
rs sourcein source {(0.25*rpara*(1-arTc*(Temp-25)))}
rg gatein gate {(.6)}

*Large resistors to aid convergence
Rcsdconv drain source {100000Meg/aWg}
Rcgsconv gate source {100000Meg/aWg}
Rcgdconv gate drain {100000Meg/aWg}


gswitch drain source Value {if( v(drain,source)>0.0,
+	(A1*(1-aITc*(Temp-25))*log(1.0+exp((v(gate,source)-k2)/k3))* 
+	v(drain,source)/(1 + max((x0_0+x0_1*v(gate,source))/(1+ax0Tc*(Temp-25)*(Temp-25)),0.5)*v(drain,source)) ),
+	(-A1*(1-aITc*(Temp-25))*log(1.0+exp((v(gate,drain)-k2)/k3))* 
+	v(source,drain)/(1 + max((x0_0+x0_1*v(gate,drain))/(1+ax0Tc*(Temp-25)*(Temp-25)),0.5)*v(source,drain)) ) ) }


ggsdiode gate source VALUE {if( v(gate,source) < 10,
+	0.5*aWg/1077*(dgs1*(exp((v(gate,source))/dgs3)-1)+dgs2*(exp((v(gate,source))/dgs4)-1)),
+	0.5*aWg/1077*(dgs1*(exp((10)/dgs3)-1)+dgs2*(exp((10)/dgs4)-1)) ) }


ggddiode gate drain Value {if( v(gate,drain) < 10,
+	0.5*aWg/1077*(dgs1*(exp((v(gate,drain))/dgs3)-1)+dgs2*(exp((v(gate,drain))/dgs4)-1)),
+	0.5*aWg/1077*(dgs1*(exp((10)/dgs3)-1)+dgs2*(exp((10)/dgs4)-1)) ) }



*Parasitic gate-source capacitance
*C_GS         gate source  {ags1}
*Model for voltage dependent gate-source capacitance
E_IGS tl_gs bl_gs value = {0.5*ags2*ags4*log(1+exp((v(gate,source)-ags3)/ags4))+
+	ags5*ags7*log(1+exp((v(source,drain)-ags6)/ags7))+
+	ags1*v(gate,source) }
V_INGS br_gs bl_gs 0.0
C_IGS br_gs tr_gs {1.0e-6}
R_IGS tr_gs tl_gs {1.0e-4}
F_IGS gate source V_INGS 1e6
R_IGS2 bl_gs source 100Meg

*Parasitic gate-drain capacitance 
*C_GD         gate drain  {agd1}
*Model for voltage dependent gate-drain capacitance
E_IGD tl_gd bl_gd value = {0.5*ags2*ags4*log(1+exp((v(gate,drain)-ags3)/ags4))+
+	agd2*agd4*log(1+exp((v(gate,drain)-agd3)/agd4))+
+	agd1*v(gate,drain) }
V_INGD br_gd bl_gd 0.0
C_IGD br_gd tr_gd {1.0e-6}
R_IGD tr_gd tl_gd {1.0e-4}
F_IGD gate drain V_INGD 1e6
R_IGD2 bl_gd drain 100Meg

*Parasitic source-drain capacitance 
*C_SD         source drain  {asd1}
*Model for voltage dependent source-drain capacitance
E_ISD tl_sd bl_sd value = {asd2*asd4*log(1+exp((v(source,drain)-asd3)/asd4))+
+	asd5*asd7*log(1+exp((v(source,drain)-asd6)/asd7))+
+	asd1*v(source,drain) }
V_INSD br_sd bl_sd 0.0
C_ISD br_sd tr_sd {1.0E-6}
R_ISD tr_sd tl_sd {1.0e-4}
F_ISD source drain V_INSD 1e6
R_ISD2 bl_sd drain 100Meg

.ends
* (C) Copyright Efficient Power Conversion Corporation. All rights reserved.
* **************************************************************************
* Version History:
*        1.02: Added the copyright statement.
*
* source EPC2007DEV1
.subckt EPC2007 gatein drainin sourcein
.param aWg=264 A1=10.38 k2=2.0 k3=0.12 rpara=0.0188 
+      aITc=0.0037 arTc=-0.0054 x0_0=1.4 x0_1=0.40 x0_1_TC=0.004
+      dgs1=4.3e-7 dgs2=2.6e-13 dgs3=.8 dgs4=.23	  
+      ags1=1.9587e-010 ags2=1.1717e-010 ags3=1.7371e+000 ags4=3.0184e-001
+      ags5=-2.0183e-011 ags6=-1.4735e+001 ags7=4.9779e+000
+      agd1=6.1726e-012 agd2=1.9609e-011 agd3=-4.4492e+000 agd4=2.1445e+000
+      agd5=1.4393e-011 agd6=-1.4160e+001 agd7=4.4510e+000
+      asd1=8.4673e-011 asd2=1.4742e-010 asd3=-1.9467e+001 asd4=3.9271e+000
+      asd5=9.0329e-011 asd6=-2.9550e+001 asd7=2.5332e+001

rd drainin drain {(0.75*rpara*(1-arTc*(Temp-25)))}
rs sourcein source {(0.25*rpara*(1-arTc*(Temp-25)))}
rg gatein gate {(.6)}

*Large resistors to aid convergence
Rcsdconv drain source {100000Meg/aWg}
Rcgsconv gate source {100000Meg/aWg}
Rcgdconv gate drain {100000Meg/aWg}


gswitch drain source Value {if(v(drain,source)>0,
+	(A1*(1-aITc*(Temp-25))*log(1.0+exp((v(gate,source)-k2)/k3))* 
+	v(drain,source)/(1 + max(x0_0+x0_1*(1-x0_1_TC*(Temp-25))*v(gate,source),0.2)*v(drain,source)) ),
+	(-A1*(1-aITc*(Temp-25))*log(1.0+exp((v(gate,drain)-k2)/k3))* 
+	v(source,drain)/(1 + max(x0_0+x0_1*(1-x0_1_TC*(Temp-25))*v(gate,drain),0.2)*v(source,drain)) ) ) }


ggsdiode gate source VALUE {if( v(gate,source) < 10,
+	0.5*aWg/1077*(dgs1*(exp((v(gate,source))/dgs3)-1)+dgs2*(exp((v(gate,source))/dgs4)-1)),
+	0.5*aWg/1077*(dgs1*(exp((10)/dgs3)-1)+dgs2*(exp((10)/dgs4)-1)) ) }


ggddiode gate drain Value {if( v(gate,drain) < 10,
+	0.5*aWg/1077*(dgs1*(exp((v(gate,drain))/dgs3)-1)+dgs2*(exp((v(gate,drain))/dgs4)-1)),
+	0.5*aWg/1077*(dgs1*(exp((10)/dgs3)-1)+dgs2*(exp((10)/dgs4)-1)) ) }



*Parasitic gate-source capacitance
*C_GS         gate source  {ags1}
*Model for voltage dependent gate-source capacitance
E_IGS tl_gs bl_gs value = {0.5*ags2*ags4*log(1+exp((v(gate,source)-ags3)/ags4))+
+	ags5*ags7*log(1+exp((v(source,drain)-ags6)/ags7))+
+	ags1*v(gate,source) }
V_INGS br_gs bl_gs 0.0
C_IGS br_gs tr_gs {1.0e-6}
R_IGS tr_gs tl_gs {1.0e-4}
F_IGS gate source V_INGS 1e6
R_IGS2 bl_gs source 100Meg

*Parasitic gate-drain capacitance 
*C_GD         gate drain  {agd1}
*Model for voltage dependent gate-drain capacitance
E_IGD tl_gd bl_gd value = {0.5*ags2*ags4*log(1+exp((v(gate,drain)-ags3)/ags4))+
+	agd2*agd4*log(1+exp((v(gate,drain)-agd3)/agd4))+agd5*agd7*log(1+exp((v(gate,drain)-agd6)/agd7))+
+	agd1*v(gate,drain) }
V_INGD br_gd bl_gd 0.0
C_IGD br_gd tr_gd {1.0e-6}
R_IGD tr_gd tl_gd {1.0e-4}
F_IGD gate drain V_INGD 1e6
R_IGD2 bl_gd drain 100Meg

*Parasitic source-drain capacitance 
*C_SD         source drain  {asd1}
*Model for voltage dependent source-drain capacitance
E_ISD tl_sd bl_sd value = {asd2*asd4*log(1+exp((v(source,drain)-asd3)/asd4))+
+	asd5*asd7*log(1+exp((v(source,drain)-asd6)/asd7))+
+	asd1*v(source,drain) }
V_INSD br_sd bl_sd 0.0
C_ISD br_sd tr_sd {1.0E-6}
R_ISD tr_sd tl_sd {1.0e-4}
F_ISD source drain V_INSD 1e6
R_ISD2 bl_sd drain 100Meg

.ends


* (C) Copyright Efficient Power Conversion Corporation. All rights reserved.
* **************************************************************************
* Version History:
*        1.02: Added the copyright statement.
*
* source EPC2010DEV1
.subckt EPC2010 gatein drainin sourcein
.param aWg=599  A1=15.5 k2=2.2 k3=0.16 rpara=0.014 
+	aITc=.0019 arTc=-0.0072 ax0Tc=0.0 x0_0=0.31 x0_1=0.255