.SUBCKT C0201C100K3GAC 1 6
* Temp@ 25°C, Bias@ 0Vdc , Center Freq@ 10.000MHz
* KEMET Model RLC Cerm.JPG / Spice Version 3.9.5 
L1  1 2 29.20E-12
L2  2 3 554.80E-12
R1  3 4 724.56E-03
C1  4 6 9.95E-12
R2  2 5 22.06
C2  5 6 50.00E-15
R3  1 6 100.000E+09
.ENDS
.SUBCKT C0201C101K3GAC 1 6
* Temp@ 25°C, Bias@ 0Vdc , Center Freq@ 10.000MHz
* KEMET Model RLC Cerm.JPG / Spice Version 3.9.5 
L1  1 2 38.00E-12
L2  2 3 722.00E-12
R1  3 4 216.45E-03
C1  4 6 99.50E-12
R2  2 5 8.2
C2  5 6 50.00E-15
R3  1 6 100.000E+09
.ENDS
.SUBCKT C0201C103K4PAC 1 6
* Temp@ 25°C, Bias@ 0Vdc , Center Freq@ 1.000MHz
* KEMET Model RLC Cerm.JPG / Spice Version 3.9.5 
L1  1 2 22.50E-12
L2  2 3 427.50E-12
R1  3 4 31.06E-03
C1  4 6 9.10E-09
R2  2 5 0.95
C2  5 6 1.90E-12
R3  1 6 100.000E+09
.ENDS
.SUBCKT C0201C104K9PAC 1 6
* Temp@ 25°C, Bias@ 0Vdc , Center Freq@ 1.000MHz
* KEMET Model RLC Cerm.JPG / Spice Version 3.9.5 
L1  1 2 27.50E-12
L2  2 3 522.50E-12
R1  3 4 4.88E-03
C1  4 6 91.00E-09
R2  2 5 0.3
C2  5 6 1.90E-12
R3  1 6 10.000E+09
.ENDS
.SUBCKT C0201C120K3GAC 1 6
* Temp@ 25°C, Bias@ 0Vdc , Center Freq@ 10.000MHz
* KEMET Model RLC Cerm.JPG / Spice Version 3.9.5 
L1  1 2 30.35E-12
L2  2 3 576.65E-12
R1  3 4 685.00E-03
C1  4 6 11.94E-12
R2  2 5 21.27
C2  5 6 50.00E-15
R3  1 6 100.000E+09
.ENDS
.SUBCKT C0201C150K3GAC 1 6
* Temp@ 25°C, Bias@ 0Vdc , Center Freq@ 10.000MHz
* KEMET Model RLC Cerm.JPG / Spice Version 3.9.5 
L1  1 2 30.35E-12
L2  2 3 576.65E-12
R1  3 4 591.10E-03
C1  4 6 14.92E-12
R2  2 5 18.72
C2  5 6 50.00E-15
R3  1 6 100.000E+09
.ENDS
.SUBCKT C0201C180K3GAC 1 6
* Temp@ 25°C, Bias@ 0Vdc , Center Freq@ 10.000MHz
* KEMET Model RLC Cerm.JPG / Spice Version 3.9.5 
L1  1 2 32.10E-12
L2  2 3 609.90E-12
R1  3 4 528.48E-03
C1  4 6 17.91E-12
R2  2 5 17.09
C2  5 6 50.00E-15
R3  1 6 100.000E+09
.ENDS
.SUBCKT C0201C220K3GAC 1 6
* Temp@ 25°C, Bias@ 0Vdc , Center Freq@ 10.000MHz
* KEMET Model RLC Cerm.JPG / Spice Version 3.9.5 
L1  1 2 32.10E-12
L2  2 3 609.90E-12
R1  3 4 469.20E-03
C1  4 6 21.89E-12
R2  2 5 15.44
C2  5 6 50.00E-15
R3  1 6 100.000E+09
.ENDS
.SUBCKT C0201C270K3GAC 1 6
* Temp@ 25°C, Bias@ 0Vdc , Center Freq@ 10.000MHz
* KEMET Model RLC Cerm.JPG / Spice Version 3.9.5 
L1  1 2 33.25E-12
L2  2 3 631.75E-12
R1  3 4 420.61E-03
C1  4 6 26.86E-12
R2  2 5 14.13
C2  5 6 50.00E-15
R3  1 6 100.000E+09
.ENDS
.SUBCKT C0201C330K3GAC 1 6
* Temp@ 25°C, Bias@ 0Vdc , Center Freq@ 10.000MHz
* KEMET Model RLC Cerm.JPG / Spice Version 3.9.5 
L1  1 2 34.10E-12
L2  2 3 647.90E-12
R1  3 4 364.40E-03
C1  4 6 32.83E-12
R2  2 5 12.48
C2  5 6 50.00E-15
R3  1 6 100.000E+09
.ENDS
.SUBCKT C0201C390K3GAC 1 6
* Temp@ 25°C, Bias@ 0Vdc , Center Freq@ 10.000MHz
* KEMET Model RLC Cerm.JPG / Spice Version 3.9.5 
L1  1 2 34.70E-12
L2  2 3 659.30E-12
R1  3 4 329.43E-03
C1  4 6 38.80E-12
R2  2 5 11.46
C2  5 6 50.00E-15
R3  1 6 100.000E+09
.ENDS
.SUBCKT C0201C470K3GAC 1 6
* Temp@ 25°C, Bias@ 0Vdc , Center Freq@ 10.000MHz
* KEMET Model RLC Cerm.JPG / Spice Version 3.9.5 
L1  1 2 35.25E-12
L2  2 3 669.75E-12
R1  3 4 299.00E-03
C1  4 6 46.76E-12
R2  2 5 10.58
C2  5 6 50.00E-15
R3  1 6 100.000E+09
.ENDS
.SUBCKT C0201C560K3GAC 1 6
* Temp@ 25°C, Bias@ 0Vdc , Center Freq@ 10.000MHz
* KEMET Model RLC Cerm.JPG / Spice Version 3.9.5 
L1  1 2 35.85E-12
L2  2 3 681.15E-12
R1  3 4 267.56E-03
C1  4 6 55.72E-12
R2  2 5 9.62
C2  5 6 50.00E-15
R3  1 6 100.000E+09
.ENDS
.SUBCKT C0201C680K3GAC 1 6
* Temp@ 25°C, Bias@ 0Vdc , Center Freq@ 10.000MHz
* KEMET Model RLC Cerm.JPG / Spice Version 3.9.5 
L1  1 2 35.85E-12
L2  2 3 681.15E-12
R1  3 4 233.74E-03
C1  4 6 67.66E-12
R2  2 5 8.54
C2  5 6 50.00E-15
R3  1 6 100.000E+09
.ENDS
.SUBCKT C0201C820K3GAC 1 6
* Temp@ 25°C, Bias@ 0Vdc , Center Freq@ 10.000MHz
* KEMET Model RLC Cerm.JPG / Spice Version 3.9.5 
L1  1 2 36.40E-12
L2  2 3 691.60E-12
R1  3 4 226.12E-03
C1  4 6 81.59E-12
R2  2 5 8.4
C2  5 6 50.00E-15
R3  1 6 100.000E+09
.ENDS
.SUBCKT C0402C100K5GAC 1 6
* Temp@ 25°C, Bias@ 0Vdc , Center Freq@ 10.000MHz
* KEMET Model RLC Cerm.JPG / Spice Version 3.9.5 
L1  1 2 36.50E-12
L2  2 3 693.50E-12
R1  3 4 887.71E-03
C1  4 6 9.95E-12
R2  2 5 27.57
C2  5 6 60.00E-15
R3  1 6 100.000E+09
.ENDS
.SUBCKT C0402C101K1HAC 1 6
* Temp@ 25°C, Bias@ 0Vdc , Center Freq@ 10.000MHz
* KEMET Model RLC Cerm.JPG / Spice Version 3.9.5 
L1  1 2 11.97E-12
L2  2 3 227.33E-12
R1  3 4 256.46E-03
C1  4 6 99.50E-12
R2  2 5 6.22
C2  5 6 60.00E-15
R3  1 6 100.000E+09
.ENDS
.SUBCKT C0402C101K5GAC 1 6
* Temp@ 25°C, Bias@ 0Vdc , Center Freq@ 10.000MHz
* KEMET Model RLC Cerm.JPG / Spice Version 3.9.5 
L1  1 2 47.50E-12
L2  2 3 902.50E-12
R1  3 4 265.76E-03
C1  4 6 99.50E-12
R2  2 5 10.25
C2  5 6 60.00E-15
R3  1 6 100.000E+09
.ENDS
.SUBCKT C0402C102K1HAC 1 6
* Temp@ 25°C, Bias@ 0Vdc , Center Freq@ 10.000MHz
* KEMET Model RLC Cerm.JPG / Spice Version 3.9.5 
L1  1 2 35.23E-12
L2  2 3 669.33E-12
R1  3 4 75.98E-03
C1  4 6 980.00E-12
R2  2 5 4.9
C2  5 6 60.00E-15
R3  1 6 100.000E+09
.ENDS
.SUBCKT C0402C102K3GAC 1 6
* Temp@ 25°C, Bias@ 0Vdc , Center Freq@ 10.000MHz
* KEMET Model RLC Cerm.JPG / Spice Version 3.9.5 
L1  1 2 47.50E-12
L2  2 3 902.50E-12
R1  3 4 30.74E-03
C1  4 6 980.00E-12
R2  2 5 2.2
C2  5 6 60.00E-15
R3  1 6 100.000E+09
.ENDS
.SUBCKT C0402C102K5RAC 1 6
* Temp@ 25°C, Bias@ 0Vdc , Center Freq@ 1.000MHz
* KEMET Model RLC Cerm.JPG / Spice Version 3.9.5 
L1  1 2 49.50E-12
L2  2 3 940.50E-12
R1  3 4 3.54
C1  4 6 910.00E-12
R2  2 5 60.3
C2  5 6 2.80E-12
R3  1 6 100.000E+09
.ENDS
.SUBCKT C0402C103K4PAC 1 6
* Temp@ 25°C, Bias@ 0Vdc , Center Freq@ 1.000MHz
* KEMET Model RLC Cerm.JPG / Spice Version 3.9.5 
L1  1 2 30.00E-12
L2  2 3 570.00E-12
R1  3 4 384.94E-03
C1  4 6 9.10E-09
R2  2 5 13
C2  5 6 3.90E-12
R3  1 6 100.000E+09
.ENDS
.SUBCKT C0402C103K5RAC 1 6
* Temp@ 25°C, Bias@ 0Vdc , Center Freq@ 1.000MHz
* KEMET Model RLC Cerm.JPG / Spice Version 3.9.5 
L1  1 2 95.00E-12
L2  2 3 1.80E-09
R1  3 4 720.56E-03
C1  4 6 9.10E-09
R2  2 5 34.5
C2  5 6 2.80E-12
R3  1 6 100.000E+09
.ENDS
.SUBCKT C0402C104K4PAC 1 6
* Temp@ 25°C, Bias@ 0Vdc , Center Freq@ 1.000MHz
* KEMET Model RLC Cerm.JPG / Spice Version 3.9.5 
L1  1 2 43.00E-12
L2  2 3 817.00E-12
R1  3 4 44.86E-03
C1  4 6 91.00E-09
R2  2 5 3
C2  5 6 3.90E-12
R3  1 6 10.000E+09
.ENDS
.SUBCKT C0402C104K4RAC 1 6
* Temp@ 25°C, Bias@ 0Vdc , Center Freq@ 1.000MHz
* KEMET Model RLC Cerm.JPG / Spice Version 3.9.5 
L1  1 2 52.00E-12
L2  2 3 988.00E-12
R1  3 4 34.75E-03
C1  4 6 91.00E-09
R2  2 5 2.4
C2  5 6 2.80E-12
R3  1 6 10.000E+09
.ENDS
.SUBCKT C0402C105K8PAC 1 6
* Temp@ 25°C, Bias@ 0Vdc , Center Freq@ 1.000MHz
* KEMET Model RLC Cerm.JPG / Spice Version 3.9.5 
L1  1 2 35.00E-12
L2  2 3 665.00E-12
R1  3 4 11.08E-03
C1  4 6 910.00E-09
R2  2 5 0.96
C2  5 6 3.90E-12
R3  1 6 1.000E+09
.ENDS
.SUBCKT C0402C105K9PAC 1 6
* Temp@ 25°C, Bias@ 0Vdc , Center Freq@ 1.000MHz
* KEMET Model RLC Cerm.JPG / Spice Version 3.9.5 
L1  1 2 35.00E-12
L2  2 3 665.00E-12
R1  3 4 13.27E-03
C1  4 6 910.00E-09
R2  2 5 1.15
C2  5 6 3.90E-12
R3  1 6 1.000E+09
.ENDS
.SUBCKT C0402C109K5GAC 1 6
* Temp@ 25°C, Bias@ 0Vdc , Center Freq@ 10.000MHz
* KEMET Model RLC Cerm.JPG / Spice Version 3.9.5 
L1  1 2 24.55E-12
L2  2 3 466.45E-12
R1  3 4 3.14
C1  4 6 995.00E-15
R2  2 5 76
C2  5 6 60.00E-15
R3  1 6 100.000E+09
.ENDS
.SUBCKT C0402C110K5GAC 1 6
* Temp@ 25°C, Bias@ 0Vdc , Center Freq@ 10.000MHz
* KEMET Model RLC Cerm.JPG / Spice Version 3.9.5 
L1  1 2 37.22E-12
L2  2 3 707.27E-12
R1  3 4 863.10E-03
C1  4 6 10.95E-12
R2  2 5 27.08
C2  5 6 60.00E-15
R3  1 6 100.000E+09
.ENDS
.SUBCKT C0402C111K1HAC 1 6
* Temp@ 25°C, Bias@ 0Vdc , Center Freq@ 10.000MHz
* KEMET Model RLC Cerm.JPG / Spice Version 3.9.5 
L1  1 2 12.51E-12
L2  2 3 237.78E-12
R1  3 4 240.83E-03
C1  4 6 109.45E-12
R2  2 5 6.16
C2  5 6 60.00E-15
R3  1 6 100.000E+09
.ENDS
.SUBCKT C0402C112K5HAC 1 6
* Temp@ 25°C, Bias@ 0Vdc , Center Freq@ 10.000MHz
* KEMET Model RLC Cerm.JPG / Spice Version 3.9.5 
L1  1 2 35.31E-12
L2  2 3 670.89E-12
R1  3 4 84.98E-03
C1  4 6 1.08E-09
R2  2 5 5.58
C2  5 6 60.00E-15
R3  1 6 100.000E+09
.ENDS
.SUBCKT C0402C119K5GAC 1 6
* Temp@ 25°C, Bias@ 0Vdc , Center Freq@ 10.000MHz
* KEMET Model RLC Cerm.JPG / Spice Version 3.9.5 
L1  1 2 24.55E-12
L2  2 3 466.45E-12
R1  3 4 3.07
C1  4 6 1.09E-12
R2  2 5 74.99
C2  5 6 60.00E-15
R3  1 6 100.000E+09
.ENDS
.SUBCKT C0402C120K5GAC 1 6
* Temp@ 25°C, Bias@ 0Vdc , Center Freq@ 10.000MHz
* KEMET Model RLC Cerm.JPG / Spice Version 3.9.5 
L1  1 2 37.95E-12
L2  2 3 721.05E-12
R1  3 4 839.58E-03
C1  4 6 11.94E-12
R2  2 5 26.59
C2  5 6 60.00E-15
R3  1 6 100.000E+09
.ENDS
.SUBCKT C0402C121K1HAC 1 6
* Temp@ 25°C, Bias@ 0Vdc , Center Freq@ 10.000MHz
* KEMET Model RLC Cerm.JPG / Spice Version 3.9.5 
L1  1 2 13.03E-12
L2  2 3 247.66E-12
R1  3 4 227.76E-03
C1  4 6 119.40E-12
R2  2 5 6.11
C2  5 6 60.00E-15
R3  1 6 100.000E+09
.ENDS
.SUBCKT C0402C121K5GAC 1 6
* Temp@ 25°C, Bias@ 0Vdc , Center Freq@ 10.000MHz
* KEMET Model RLC Cerm.JPG / Spice Version 3.9.5 
L1  1 2 47.50E-12
L2  2 3 902.50E-12
R1  3 4 258.10E-03
C1  4 6 119.40E-12
R2  2 5 10.1
C2  5 6 60.00E-15
R3  1 6 100.000E+09
.ENDS
.SUBCKT C0402C122K5HAC 1 6
* Temp@ 25°C, Bias@ 0Vdc , Center Freq@ 10.000MHz
* KEMET Model RLC Cerm.JPG / Spice Version 3.9.5 
L1  1 2 34.45E-12
L2  2 3 654.64E-12
R1  3 4 78.89E-03
C1  4 6 1.18E-09
R2  2 5 5.24
C2  5 6 60.00E-15
R3  1 6 100.000E+09
.ENDS
.SUBCKT C0402C122K5RAC 1 6
* Temp@ 25°C, Bias@ 0Vdc , Center Freq@ 1.000MHz
* KEMET Model RLC Cerm.JPG / Spice Version 3.9.5 
L1  1 2 52.50E-12
L2  2 3 997.50E-12
R1  3 4 2.96
C1  4 6 1.09E-09
R2  2 5 55.7
C2  5 6 2.80E-12
R3  1 6 100.000E+09
.ENDS
.SUBCKT C0402C123K3NAC 1 6
* Temp@ 25°C, Bias@ 0Vdc , Center Freq@ 1.000MHz
* KEMET Model RLC Cerm.JPG / Spice Version 3.9.5 
L1  1 2 32.42E-12
L2  2 3 616.02E-12
R1  3 4 210.21E-03
C1  4 6 10.92E-09
R2  2 5 7.73
C2  5 6 2.80E-12
R3  1 6 83.330E+09
.ENDS
.SUBCKT C0402C123K4PAC 1 6
* Temp@ 25°C, Bias@ 0Vdc , Center Freq@ 1.000MHz
* KEMET Model RLC Cerm.JPG / Spice Version 3.9.5 
L1  1 2 30.00E-12
L2  2 3 570.00E-12
R1  3 4 320.56E-03
C1  4 6 10.92E-09
R2  2 5 11.5
C2  5 6 3.90E-12
R3  1 6 83.330E+09
.ENDS
.SUBCKT C0402C123K4RAC 1 6
* Temp@ 25°C, Bias@ 0Vdc , Center Freq@ 1.000MHz
* KEMET Model RLC Cerm.JPG / Spice Version 3.9.5 
L1  1 2 33.50E-12
L2  2 3 636.50E-12
R1  3 4 363.14E-03
C1  4 6 10.92E-09
R2  2 5 13.5
C2  5 6 2.80E-12
R3  1 6 83.330E+09
.ENDS
.SUBCKT C0402C124K9PAC 1 6
* Temp@ 25°C, Bias@ 0Vdc , Center Freq@ 1.000MHz
* KEMET Model RLC Cerm.JPG / Spice Version 3.9.5 
L1  1 2 43.97E-12
L2  2 3 835.47E-12
R1  3 4 46.57E-03
C1  4 6 109.20E-09
R2  2 5 3.22
C2  5 6 3.90E-12
R3  1 6 8.333E+09
.ENDS
.SUBCKT C0402C125K9PAC 1 6
* Temp@ 25°C, Bias@ 0Vdc , Center Freq@ 1.000MHz
* KEMET Model RLC Cerm.JPG / Spice Version 3.9.5 
L1  1 2 32.50E-12
L2  2 3 617.50E-12
R1  3 4 12.01E-03
C1  4 6 1.09E-06
R2  2 5 1.05
C2  5 6 3.90E-12
R3  1 6 833.300E+06
.ENDS
.SUBCKT C0402C129K5GAC 1 6
* Temp@ 25°C, Bias@ 0Vdc , Center Freq@ 10.000MHz
* KEMET Model RLC Cerm.JPG / Spice Version 3.9.5 
L1  1 2 24.55E-12
L2  2 3 466.45E-12
R1  3 4 3.01
C1  4 6 1.19E-12
R2  2 5 73.97
C2  5 6 60.00E-15
R3  1 6 100.000E+09
.ENDS
.SUBCKT C0402C130K5GAC 1 6
* Temp@ 25°C, Bias@ 0Vdc , Center Freq@ 10.000MHz
* KEMET Model RLC Cerm.JPG / Spice Version 3.9.5 
L1  1 2 37.95E-12
L2  2 3 721.05E-12
R1  3 4 783.69E-03
C1  4 6 12.93E-12
R2  2 5 25
C2  5 6 60.00E-15
R3  1 6 100.000E+09
.ENDS
.SUBCKT C0402C131K1HAC 1 6
* Temp@ 25°C, Bias@ 0Vdc , Center Freq@ 10.000MHz
* KEMET Model RLC Cerm.JPG / Spice Version 3.9.5 
L1  1 2 13.54E-12
L2  2 3 257.17E-12
R1  3 4 215.99E-03
C1  4 6 129.35E-12
R2  2 5 6.05
C2  5 6 60.00E-15
R3  1 6 100.000E+09
.ENDS
.SUBCKT C0402C132K5HAC 1 6
* Temp@ 25°C, Bias@ 0Vdc , Center Freq@ 10.000MHz
* KEMET Model RLC Cerm.JPG / Spice Version 3.9.5 
L1  1 2 33.68E-12
L2  2 3 640.01E-12
R1  3 4 73.79E-03
C1  4 6 1.27E-09
R2  2 5 4.95
C2  5 6 60.00E-15
R3  1 6 100.000E+09
.ENDS
.SUBCKT C0402C139K5GAC 1 6
* Temp@ 25°C, Bias@ 0Vdc , Center Freq@ 10.000MHz
* KEMET Model RLC Cerm.JPG / Spice Version 3.9.5 
L1  1 2 24.92E-12
L2  2 3 473.57E-12
R1  3 4 2.94
C1  4 6 1.29E-12
R2  2 5 72.93
C2  5 6 60.00E-15
R3  1 6 100.000E+09
.ENDS
.SUBCKT C0402C150K5GAC 1 6
* Temp@ 25°C, Bias@ 0Vdc , Center Freq@ 10.000MHz
* KEMET Model RLC Cerm.JPG / Spice Version 3.9.5 
L1  1 2 37.95E-12
L2  2 3 721.05E-12
R1  3 4 724.55E-03
C1  4 6 14.92E-12
R2  2 5 23.4
C2  5 6 60.00E-15
R3  1 6 100.000E+09
.ENDS
.SUBCKT C0402C151K1HAC 1 6
* Temp@ 25°C, Bias@ 0Vdc , Center Freq@ 10.000MHz
* KEMET Model RLC Cerm.JPG / Spice Version 3.9.5 
L1  1 2 14.47E-12
L2  2 3 275.02E-12
R1  3 4 197.64E-03
C1  4 6 149.25E-12
R2  2 5 5.97
C2  5 6 60.00E-15
R3  1 6 100.000E+09
.ENDS
.SUBCKT C0402C151K5GAC 1 6
* Temp@ 25°C, Bias@ 0Vdc , Center Freq@ 10.000MHz
* KEMET Model RLC Cerm.JPG / Spice Version 3.9.5 
L1  1 2 47.50E-12
L2  2 3 902.50E-12
R1  3 4 263.64E-03
C1  4 6 149.25E-12
R2  2 5 10.5
C2  5 6 60.00E-15
R3  1 6 100.000E+09
.ENDS
.SUBCKT C0402C151K5RAC 1 6
* Temp@ 25°C, Bias@ 0Vdc , Center Freq@ 1.000MHz
* KEMET Model RLC Cerm.JPG / Spice Version 3.9.5 
L1  1 2 27.00E-12
L2  2 3 513.00E-12
R1  3 4 19.20
C1  4 6 136.50E-12
R2  2 5 106
C2  5 6 2.80E-12
R3  1 6 100.000E+09
.ENDS
.SUBCKT C0402C152K5HAC 1 6
* Temp@ 25°C, Bias@ 0Vdc , Center Freq@ 10.000MHz
* KEMET Model RLC Cerm.JPG / Spice Version 3.9.5 
L1  1 2 32.35E-12
L2  2 3 614.66E-12
R1  3 4 65.34E-03
C1  4 6 1.47E-09
R2  2 5 4.46
C2  5 6 60.00E-15
R3  1 6 100.000E+09
.ENDS
.SUBCKT C0402C152K5RAC 1 6
* Temp@ 25°C, Bias@ 0Vdc , Center Freq@ 1.000MHz
* KEMET Model RLC Cerm.JPG / Spice Version 3.9.5 
L1  1 2 56.50E-12
L2  2 3 1.07E-09
R1  3 4 2.48
C1  4 6 1.37E-09
R2  2 5 52.6
C2  5 6 2.80E-12
R3  1 6 100.000E+09
.ENDS
.SUBCKT C0402C153K3NAC 1 6
* Temp@ 25°C, Bias@ 0Vdc , Center Freq@ 1.000MHz
* KEMET Model RLC Cerm.JPG / Spice Version 3.9.5 
L1  1 2 30.95E-12
L2  2 3 588.14E-12
R1  3 4 175.55E-03
C1  4 6 13.65E-09
R2  2 5 6.83
C2  5 6 2.80E-12
R3  1 6 66.670E+09
.ENDS
.SUBCKT C0402C153K4PAC 1 6
* Temp@ 25°C, Bias@ 0Vdc , Center Freq@ 1.000MHz
* KEMET Model RLC Cerm.JPG / Spice Version 3.9.5 
L1  1 2 30.00E-12
L2  2 3 570.00E-12
R1  3 4 272.53E-03
C1  4 6 13.65E-09
R2  2 5 10.5
C2  5 6 3.90E-12
R3  1 6 66.670E+09
.ENDS
.SUBCKT C0402C153K4RAC 1 6
* Temp@ 25°C, Bias@ 0Vdc , Center Freq@ 1.000MHz
* KEMET Model RLC Cerm.JPG / Spice Version 3.9.5 
L1  1 2 35.50E-12
L2  2 3 674.50E-12
R1  3 4 315.43E-03
C1  4 6 13.65E-09
R2  2 5 12.8
C2  5 6 2.80E-12
R3  1 6 66.670E+09
.ENDS
.SUBCKT C0402C154K9PAC 1 6
* Temp@ 25°C, Bias@ 0Vdc , Center Freq@ 1.000MHz
* KEMET Model RLC Cerm.JPG / Spice Version 3.9.5 
L1  1 2 43.37E-12
L2  2 3 824.10E-12
R1  3 4 43.12E-03
C1  4 6 136.50E-09
R2  2 5 3.09
C2  5 6 3.90E-12
R3  1 6 6.667E+09
.ENDS
.SUBCKT C0402C155K9PAC 1 6
* Temp@ 25°C, Bias@ 0Vdc , Center Freq@ 1.000MHz
* KEMET Model RLC Cerm.JPG / Spice Version 3.9.5 
L1  1 2 30.00E-12
L2  2 3 570.00E-12
R1  3 4 11.32E-03
C1  4 6 1.37E-06
R2  2 5 1
C2  5 6 3.90E-12
R3  1 6 666.700E+06
.ENDS
.SUBCKT C0402C159K5GAC 1 6
* Temp@ 25°C, Bias@ 0Vdc , Center Freq@ 10.000MHz
* KEMET Model RLC Cerm.JPG / Spice Version 3.9.5 
L1  1 2 25.30E-12
L2  2 3 480.70E-12
R1  3 4 2.85
C1  4 6 1.49E-12
R2  2 5 71.89
C2  5 6 60.00E-15
R3  1 6 100.000E+09
.ENDS
.SUBCKT C0402C160K5GAC 1 6
* Temp@ 25°C, Bias@ 0Vdc , Center Freq@ 10.000MHz
* KEMET Model RLC Cerm.JPG / Spice Version 3.9.5 
L1  1 2 39.02E-12
L2  2 3 741.47E-12
R1  3 4 687.40E-03
C1  4 6 15.92E-12
R2  2 5 22.38
C2  5 6 60.00E-15
R3  1 6 100.000E+09
.ENDS
.SUBCKT C0402C161K1HAC 1 6
* Temp@ 25°C, Bias@ 0Vdc , Center Freq@ 10.000MHz
* KEMET Model RLC Cerm.JPG / Spice Version 3.9.5 
L1  1 2 14.91E-12
L2  2 3 283.38E-12
R1  3 4 189.91E-03
C1  4 6 159.20E-12
R2  2 5 5.93
C2  5 6 60.00E-15
R3  1 6 100.000E+09
.ENDS
.SUBCKT C0402C169K5GAC 1 6
* Temp@ 25°C, Bias@ 0Vdc , Center Freq@ 10.000MHz
* KEMET Model RLC Cerm.JPG / Spice Version 3.9.5 
L1  1 2 25.30E-12
L2  2 3 480.70E-12
R1  3 4 2.74
C1  4 6 1.59E-12
R2  2 5 69.43
C2  5 6 60.00E-15
R3  1 6 100.000E+09
.ENDS
.SUBCKT C0402C180K5GAC 1 6
* Temp@ 25°C, Bias@ 0Vdc , Center Freq@ 10.000MHz
* KEMET Model RLC Cerm.JPG / Spice Version 3.9.5 
L1  1 2 40.10E-12
L2  2 3 761.90E-12
R1  3 4 647.88E-03
C1  4 6 17.91E-12
R2  2 5 21.36
C2  5 6 60.00E-15
R3  1 6 100.000E+09
.ENDS
.SUBCKT C0402C181K1HAC 1 6
* Temp@ 25°C, Bias@ 0Vdc , Center Freq@ 10.000MHz
* KEMET Model RLC Cerm.JPG / Spice Version 3.9.5 
L1  1 2 15.76E-12
L2  2 3 299.53E-12
R1  3 4 176.51E-03
C1  4 6 179.10E-12
R2  2 5 5.85
C2  5 6 60.00E-15
R3  1 6 100.000E+09
.ENDS
.SUBCKT C0402C181K5RAC 1 6
* Temp@ 25°C, Bias@ 0Vdc , Center Freq@ 1.000MHz
* KEMET Model RLC Cerm.JPG / Spice Version 3.9.5 
L1  1 2 29.00E-12
L2  2 3 551.00E-12
R1  3 4 16.12
C1  4 6 163.80E-12
R2  2 5 100.3
C2  5 6 2.80E-12
R3  1 6 100.000E+09
.ENDS
.SUBCKT C0402C182K5RAC 1 6
* Temp@ 25°C, Bias@ 0Vdc , Center Freq@ 1.000MHz
* KEMET Model RLC Cerm.JPG / Spice Version 3.9.5 
L1  1 2 57.00E-12
L2  2 3 1.08E-09
R1  3 4 2.14
C1  4 6 1.64E-09
R2  2 5 48.8
C2  5 6 2.80E-12
R3  1 6 100.000E+09
.ENDS
.SUBCKT C0402C183K3NAC 1 6
* Temp@ 25°C, Bias@ 0Vdc , Center Freq@ 1.000MHz
* KEMET Model RLC Cerm.JPG / Spice Version 3.9.5 
L1  1 2 29.80E-12
L2  2 3 566.29E-12
R1  3 4 151.95E-03
C1  4 6 16.38E-09
R2  2 5 6.18
C2  5 6 2.80E-12
R3  1 6 55.560E+09
.ENDS
.SUBCKT C0402C183K4PAC 1 6
* Temp@ 25°C, Bias@ 0Vdc , Center Freq@ 1.000MHz
* KEMET Model RLC Cerm.JPG / Spice Version 3.9.5 
L1  1 2 31.00E-12
L2  2 3 589.00E-12
R1  3 4 213.82E-03
C1  4 6 16.38E-09
R2  2 5 8.8
C2  5 6 3.90E-12
R3  1 6 55.560E+09
.ENDS
.SUBCKT C0402C183K4RAC 1 6
* Temp@ 25°C, Bias@ 0Vdc , Center Freq@ 1.000MHz
* KEMET Model RLC Cerm.JPG / Spice Version 3.9.5 
L1  1 2 37.50E-12
L2  2 3 712.50E-12
R1  3 4 271.06E-03
C1  4 6 16.38E-09
R2  2 5 11.8
C2  5 6 2.80E-12
R3  1 6 55.560E+09
.ENDS
.SUBCKT C0402C184K9PAC 1 6
* Temp@ 25°C, Bias@ 0Vdc , Center Freq@ 1.000MHz
* KEMET Model RLC Cerm.JPG / Spice Version 3.9.5 
L1  1 2 42.78E-12
L2  2 3 812.74E-12
R1  3 4 40.17E-03
C1  4 6 163.80E-09
R2  2 5 2.95
C2  5 6 3.90E-12
R3  1 6 5.556E+09
.ENDS
.SUBCKT C0402C185K9PAC 1 6
* Temp@ 25°C, Bias@ 0Vdc , Center Freq@ 1.000MHz
* KEMET Model RLC Cerm.JPG / Spice Version 3.9.5 
L1  1 2 30.00E-12
L2  2 3 570.00E-12
R1  3 4 10.62E-03
C1  4 6 1.64E-06
R2  2 5 0.95
C2  5 6 3.90E-12
R3  1 6 555.600E+06
.ENDS
.SUBCKT C0402C189K5GAC 1 6
* Temp@ 25°C, Bias@ 0Vdc , Center Freq@ 10.000MHz
* KEMET Model RLC Cerm.JPG / Spice Version 3.9.5 
L1  1 2 25.30E-12
L2  2 3 480.70E-12
R1  3 4 2.61
C1  4 6 1.79E-12
R2  2 5 66.96
C2  5 6 60.00E-15
R3  1 6 100.000E+09
.ENDS
.SUBCKT C0402C200K5GAC 1 6
* Temp@ 25°C, Bias@ 0Vdc , Center Freq@ 10.000MHz
* KEMET Model RLC Cerm.JPG / Spice Version 3.9.5 
L1  1 2 40.10E-12
L2  2 3 761.90E-12
R1  3 4 611.06E-03
C1  4 6 19.90E-12
R2  2 5 20.33
C2  5 6 60.00E-15
R3  1 6 100.000E+09
.ENDS
.SUBCKT C0402C201K1HAC 1 6
* Temp@ 25°C, Bias@ 0Vdc , Center Freq@ 10.000MHz
* KEMET Model RLC Cerm.JPG / Spice Version 3.9.5 
L1  1 2 16.57E-12
L2  2 3 314.74E-12
R1  3 4 165.86E-03
C1  4 6 199.00E-12
R2  2 5 5.79
C2  5 6 60.00E-15
R3  1 6 100.000E+09
.ENDS
.SUBCKT C0402C209K5GAC 1 6
* Temp@ 25°C, Bias@ 0Vdc , Center Freq@ 10.000MHz
* KEMET Model RLC Cerm.JPG / Spice Version 3.9.5 
L1  1 2 26.03E-12
L2  2 3 494.48E-12
R1  3 4 2.45
C1  4 6 1.99E-12
R2  2 5 63.68
C2  5 6 60.00E-15
R3  1 6 100.000E+09
.ENDS
.SUBCKT C0402C220K5GAC 1 6
* Temp@ 25°C, Bias@ 0Vdc , Center Freq@ 10.000MHz
* KEMET Model RLC Cerm.JPG / Spice Version 3.9.5 
L1  1 2 40.10E-12
L2  2 3 761.90E-12
R1  3 4 575.36E-03
C1  4 6 21.89E-12
R2  2 5 19.3
C2  5 6 60.00E-15
R3  1 6 100.000E+09
.ENDS
.SUBCKT C0402C221K1HAC 1 6
* Temp@ 25°C, Bias@ 0Vdc , Center Freq@ 10.000MHz
* KEMET Model RLC Cerm.JPG / Spice Version 3.9.5 
L1  1 2 17.32E-12
L2  2 3 329.08E-12
R1  3 4 156.81E-03
C1  4 6 218.90E-12
R2  2 5 5.73
C2  5 6 60.00E-15
R3  1 6 100.000E+09
.ENDS
.SUBCKT C0402C221K5GAC 1 6
* Temp@ 25°C, Bias@ 0Vdc , Center Freq@ 10.000MHz
* KEMET Model RLC Cerm.JPG / Spice Version 3.9.5 
L1  1 2 49.00E-12
L2  2 3 931.00E-12
R1  3 4 226.11E-03
C1  4 6 218.90E-12
R2  2 5 9.3
C2  5 6 60.00E-15
R3  1 6 100.000E+09
.ENDS
.SUBCKT C0402C221K5RAC 1 6
* Temp@ 25°C, Bias@ 0Vdc , Center Freq@ 1.000MHz
* KEMET Model RLC Cerm.JPG / Spice Version 3.9.5 
L1  1 2 30.50E-12
L2  2 3 579.50E-12
R1  3 4 13.49
C1  4 6 200.20E-12
R2  2 5 94.4
C2  5 6 2.80E-12
R3  1 6 100.000E+09
.ENDS
.SUBCKT C0402C222K5RAC 1 6
* Temp@ 25°C, Bias@ 0Vdc , Center Freq@ 1.000MHz
* KEMET Model RLC Cerm.JPG / Spice Version 3.9.5 
L1  1 2 62.50E-12
L2  2 3 1.19E-09
R1  3 4 1.76
C1  4 6 2.00E-09
R2  2 5 45
C2  5 6 2.80E-12
R3  1 6 100.000E+09
.ENDS
.SUBCKT C0402C223K3NAC 1 6
* Temp@ 25°C, Bias@ 0Vdc , Center Freq@ 1.000MHz
* KEMET Model RLC Cerm.JPG / Spice Version 3.9.5 
L1  1 2 28.59E-12
L2  2 3 543.23E-12
R1  3 4 129.66E-03
C1  4 6 20.02E-09
R2  2 5 5.53
C2  5 6 2.80E-12
R3  1 6 45.450E+09
.ENDS
.SUBCKT C0402C223K4PAC 1 6
* Temp@ 25°C, Bias@ 0Vdc , Center Freq@ 1.000MHz
* KEMET Model RLC Cerm.JPG / Spice Version 3.9.5 
L1  1 2 32.00E-12
L2  2 3 608.00E-12
R1  3 4 145.25E-03
C1  4 6 20.02E-09
R2  2 5 6.4
C2  5 6 3.90E-12
R3  1 6 45.450E+09
.ENDS
.SUBCKT C0402C223K4RAC 1 6
* Temp@ 25°C, Bias@ 0Vdc , Center Freq@ 1.000MHz
* KEMET Model RLC Cerm.JPG / Spice Version 3.9.5 
L1  1 2 39.00E-12
L2  2 3 741.00E-12
R1  3 4 231.88E-03
C1  4 6 20.02E-09
R2  2 5 10.8
C2  5 6 2.80E-12
R3  1 6 45.450E+09
.ENDS
.SUBCKT C0402C224K9PAC 1 6
* Temp@ 25°C, Bias@ 0Vdc , Center Freq@ 1.000MHz
* KEMET Model RLC Cerm.JPG / Spice Version 3.9.5 
L1  1 2 42.03E-12
L2  2 3 798.53E-12
R1  3 4 36.86E-03
C1  4 6 200.20E-09
R2  2 5 2.78
C2  5 6 3.90E-12
R3  1 6 4.545E+09
.ENDS
.SUBCKT C0402C225K9PAC 1 6
* Temp@ 25°C, Bias@ 0Vdc , Center Freq@ 1.000MHz
* KEMET Model RLC Cerm.JPG / Spice Version 3.9.5 
L1  1 2 25.00E-12
L2  2 3 475.00E-12
R1  3 4 10.05E-03
C1  4 6 2.00E-06
R2  2 5 0.9
C2  5 6 3.90E-12
R3  1 6 454.500E+06
.ENDS
.SUBCKT C0402C229K5GAC 1 6
* Temp@ 25°C, Bias@ 0Vdc , Center Freq@ 10.000MHz
* KEMET Model RLC Cerm.JPG / Spice Version 3.9.5 
L1  1 2 26.75E-12
L2  2 3 508.25E-12
R1  3 4 2.30
C1  4 6 2.19E-12
R2  2 5 60.4
C2  5 6 60.00E-15
R3  1 6 100.000E+09
.ENDS
.SUBCKT C0402C240K5GAC 1 6
* Temp@ 25°C, Bias@ 0Vdc , Center Freq@ 10.000MHz
* KEMET Model RLC Cerm.JPG / Spice Version 3.9.5 
L1  1 2 40.82E-12
L2  2 3 775.67E-12
R1  3 4 545.99E-03
C1  4 6 23.88E-12
R2  2 5 18.48
C2  5 6 60.00E-15
R3  1 6 100.000E+09
.ENDS
.SUBCKT C0402C241K1HAC 1 6
* Temp@ 25°C, Bias@ 0Vdc , Center Freq@ 10.000MHz
* KEMET Model RLC Cerm.JPG / Spice Version 3.9.5 
L1  1 2 18.04E-12
L2  2 3 342.76E-12
R1  3 4 149.23E-03
C1  4 6 238.80E-12
R2  2 5 5.68
C2  5 6 60.00E-15
R3  1 6 100.000E+09
.ENDS
.SUBCKT C0402C249K5GAC 1 6
* Temp@ 25°C, Bias@ 0Vdc , Center Freq@ 10.000MHz
* KEMET Model RLC Cerm.JPG / Spice Version 3.9.5 
L1  1 2 26.75E-12
L2  2 3 508.25E-12
R1  3 4 1.83
C1  4 6 2.39E-12
R2  2 5 48.45
C2  5 6 60.00E-15
R3  1 6 100.000E+09
.ENDS
.SUBCKT C0402C270K5GAC 1 6
* Temp@ 25°C, Bias@ 0Vdc , Center Freq@ 10.000MHz
* KEMET Model RLC Cerm.JPG / Spice Version 3.9.5 
L1  1 2 41.55E-12
L2  2 3 789.45E-12
R1  3 4 515.78E-03
C1  4 6 26.86E-12
R2  2 5 17.66
C2  5 6 60.00E-15
R3  1 6 100.000E+09
.ENDS
.SUBCKT C0402C271K1HAC 1 6
* Temp@ 25°C, Bias@ 0Vdc , Center Freq@ 10.000MHz
* KEMET Model RLC Cerm.JPG / Spice Version 3.9.5 
L1  1 2 19.07E-12
L2  2 3 362.24E-12
R1  3 4 139.68E-03
C1  4 6 268.65E-12
R2  2 5 5.61
C2  5 6 60.00E-15
R3  1 6 100.000E+09
.ENDS
.SUBCKT C0402C271K5GAC 1 6
* Temp@ 25°C, Bias@ 0Vdc , Center Freq@ 10.000MHz
* KEMET Model RLC Cerm.JPG / Spice Version 3.9.5 
L1  1 2 49.00E-12
L2  2 3 931.00E-12
R1  3 4 198.66E-03
C1  4 6 268.65E-12
R2  2 5 8.3
C2  5 6 60.00E-15
R3  1 6 100.000E+09
.ENDS
.SUBCKT C0402C271K5RAC 1 6
* Temp@ 25°C, Bias@ 0Vdc , Center Freq@ 1.000MHz
* KEMET Model RLC Cerm.JPG / Spice Version 3.9.5 
L1  1 2 32.50E-12
L2  2 3 617.50E-12
R1  3 4 11.19
C1  4 6 245.70E-12
R2  2 5 88.7
C2  5 6 2.80E-12
R3  1 6 100.000E+09
.ENDS
.SUBCKT C0402C272K5RAC 1 6
* Temp@ 25°C, Bias@ 0Vdc , Center Freq@ 1.000MHz
* KEMET Model RLC Cerm.JPG / Spice Version 3.9.5 
L1  1 2 65.00E-12
L2  2 3 1.23E-09
R1  3 4 1.49
C1  4 6 2.46E-09
R2  2 5 41.8
C2  5 6 2.80E-12
R3  1 6 100.000E+09
.ENDS
.SUBCKT C0402C273K4PAC 1 6
* Temp@ 25°C, Bias@ 0Vdc , Center Freq@ 1.000MHz
* KEMET Model RLC Cerm.JPG / Spice Version 3.9.5 
L1  1 2 33.50E-12
L2  2 3 636.50E-12
R1  3 4 122.75E-03
C1  4 6 24.57E-09
R2  2 5 5.8
C2  5 6 3.90E-12
R3  1 6 37.040E+09
.ENDS
.SUBCKT C0402C273K4RAC 1 6
* Temp@ 25°C, Bias@ 0Vdc , Center Freq@ 1.000MHz
* KEMET Model RLC Cerm.JPG / Spice Version 3.9.5 
L1  1 2 40.00E-12
L2  2 3 760.00E-12
R1  3 4 193.83E-03
C1  4 6 24.57E-09
R2  2 5 9.6
C2  5 6 2.80E-12
R3  1 6 37.040E+09
.ENDS
.SUBCKT C0402C273K8NAC 1 6
* Temp@ 25°C, Bias@ 0Vdc , Center Freq@ 1.000MHz
* KEMET Model RLC Cerm.JPG / Spice Version 3.9.5 
L1  1 2 27.34E-12
L2  2 3 519.50E-12
R1  3 4 103.13E-03
C1  4 6 24.57E-09
R2  2 5 4.61
C2  5 6 2.80E-12
R3  1 6 37.040E+09
.ENDS
.SUBCKT C0402C274K9PAC 1 6
* Temp@ 25°C, Bias@ 0Vdc , Center Freq@ 1.000MHz
* KEMET Model RLC Cerm.JPG / Spice Version 3.9.5 
L1  1 2 40.91E-12
L2  2 3 777.22E-12
R1  3 4 32.65E-03
C1  4 6 245.70E-09
R2  2 5 2.52
C2  5 6 3.90E-12
R3  1 6 3.704E+09
.ENDS
.SUBCKT C0402C279K5GAC 1 6
* Temp@ 25°C, Bias@ 0Vdc , Center Freq@ 10.000MHz
* KEMET Model RLC Cerm.JPG / Spice Version 3.9.5 
L1  1 2 26.75E-12
L2  2 3 508.25E-12
R1  3 4 1.36
C1  4 6 2.69E-12
R2  2 5 36.5
C2  5 6 60.00E-15
R3  1 6 100.000E+09
.ENDS
.SUBCKT C0402C300K5GAC 1 6
* Temp@ 25°C, Bias@ 0Vdc , Center Freq@ 10.000MHz
* KEMET Model RLC Cerm.JPG / Spice Version 3.9.5 
L1  1 2 42.10E-12
L2  2 3 799.90E-12
R1  3 4 480.84E-03
C1  4 6 29.85E-12
R2  2 5 16.63
C2  5 6 60.00E-15
R3  1 6 100.000E+09
.ENDS
.SUBCKT C0402C301K1HAC 1 6
* Temp@ 25°C, Bias@ 0Vdc , Center Freq@ 10.000MHz
* KEMET Model RLC Cerm.JPG / Spice Version 3.9.5 
L1  1 2 20.03E-12
L2  2 3 380.57E-12
R1  3 4 131.90E-03
C1  4 6 298.50E-12
R2  2 5 5.55
C2  5 6 60.00E-15
R3  1 6 100.000E+09
.ENDS
.SUBCKT C0402C309K5GAC 1 6
* Temp@ 25°C, Bias@ 0Vdc , Center Freq@ 10.000MHz
* KEMET Model RLC Cerm.JPG / Spice Version 3.9.5 
L1  1 2 27.05E-12
L2  2 3 513.95E-12
R1  3 4 1.85
C1  4 6 2.98E-12
R2  2 5 50
C2  5 6 60.00E-15
R3  1 6 100.000E+09
.ENDS
.SUBCKT C0402C330K5GAC 1 6
* Temp@ 25°C, Bias@ 0Vdc , Center Freq@ 10.000MHz
* KEMET Model RLC Cerm.JPG / Spice Version 3.9.5 
L1  1 2 42.65E-12
L2  2 3 810.35E-12
R1  3 4 446.95E-03
C1  4 6 32.83E-12
R2  2 5 15.6
C2  5 6 60.00E-15
R3  1 6 100.000E+09
.ENDS
.SUBCKT C0402C331K1HAC 1 6
* Temp@ 25°C, Bias@ 0Vdc , Center Freq@ 10.000MHz
* KEMET Model RLC Cerm.JPG / Spice Version 3.9.5 
L1  1 2 20.95E-12
L2  2 3 397.96E-12
R1  3 4 125.48E-03
C1  4 6 328.35E-12
R2  2 5 5.5
C2  5 6 60.00E-15
R3  1 6 100.000E+09
.ENDS
.SUBCKT C0402C331K5GAC 1 6
* Temp@ 25°C, Bias@ 0Vdc , Center Freq@ 10.000MHz
* KEMET Model RLC Cerm.JPG / Spice Version 3.9.5 
L1  1 2 49.50E-12
L2  2 3 940.50E-12
R1  3 4 153.11E-03
C1  4 6 328.35E-12
R2  2 5 6.5
C2  5 6 60.00E-15
R3  1 6 100.000E+09
.ENDS
.SUBCKT C0402C331K5RAC 1 6
* Temp@ 25°C, Bias@ 0Vdc , Center Freq@ 1.000MHz
* KEMET Model RLC Cerm.JPG / Spice Version 3.9.5 
L1  1 2 35.00E-12
L2  2 3 665.00E-12
R1  3 4 9.27
C1  4 6 300.30E-12
R2  2 5 83.4
C2  5 6 2.80E-12
R3  1 6 100.000E+09
.ENDS
.SUBCKT C0402C332K5RAC 1 6
* Temp@ 25°C, Bias@ 0Vdc , Center Freq@ 1.000MHz
* KEMET Model RLC Cerm.JPG / Spice Version 3.9.5 
L1  1 2 69.00E-12
L2  2 3 1.31E-09
R1  3 4 1.29
C1  4 6 3.00E-09
R2  2 5 39.6
C2  5 6 2.80E-12
R3  1 6 100.000E+09
.ENDS
.SUBCKT C0402C333K4PAC 1 6
* Temp@ 25°C, Bias@ 0Vdc , Center Freq@ 1.000MHz
* KEMET Model RLC Cerm.JPG / Spice Version 3.9.5 
L1  1 2 36.00E-12
L2  2 3 684.00E-12
R1  3 4 90.63E-03
C1  4 6 30.03E-09
R2  2 5 4.6
C2  5 6 3.90E-12
R3  1 6 30.300E+09
.ENDS
.SUBCKT C0402C333K4RAC 1 6
* Temp@ 25°C, Bias@ 0Vdc , Center Freq@ 1.000MHz
* KEMET Model RLC Cerm.JPG / Spice Version 3.9.5 
L1  1 2 42.00E-12
L2  2 3 798.00E-12
R1  3 4 155.47E-03
C1  4 6 30.03E-09
R2  2 5 8.2
C2  5 6 2.80E-12
R3  1 6 30.300E+09
.ENDS
.SUBCKT C0402C333K8NAC 1 6
* Temp@ 25°C, Bias@ 0Vdc , Center Freq@ 1.000MHz
* KEMET Model RLC Cerm.JPG / Spice Version 3.9.5 
L1  1 2 28.21E-12
L2  2 3 535.99E-12
R1  3 4 84.84E-03
C1  4 6 30.03E-09
R2  2 5 4.04
C2  5 6 2.80E-12
R3  1 6 30.300E+09
.ENDS
.SUBCKT C0402C334K9PAC 1 6
* Temp@ 25°C, Bias@ 0Vdc , Center Freq@ 1.000MHz
* KEMET Model RLC Cerm.JPG / Spice Version 3.9.5 
L1  1 2 40.23E-12
L2  2 3 764.44E-12
R1  3 4 29.95E-03
C1  4 6 300.30E-09
R2  2 5 2.36
C2  5 6 3.90E-12
R3  1 6 3.030E+09
.ENDS
.SUBCKT C0402C335K7PAC 1 6
* Temp@ 25°C, Bias@ 0Vdc , Center Freq@ 1.000MHz
* KEMET Model RLC Cerm.JPG / Spice Version 3.9.5 
L1  1 2 20.00E-12
L2  2 3 380.00E-12
R1  3 4 9.38E-03
C1  4 6 3.00E-06
R2  2 5 0.85
C2  5 6 3.90E-12
R3  1 6 303.000E+06
.ENDS
.SUBCKT C0402C339K5GAC 1 6
* Temp@ 25°C, Bias@ 0Vdc , Center Freq@ 10.000MHz
* KEMET Model RLC Cerm.JPG / Spice Version 3.9.5 
L1  1 2 27.45E-12
L2  2 3 521.55E-12
R1  3 4 1.77
C1  4 6 3.28E-12
R2  2 5 48.54
C2  5 6 60.00E-15
R3  1 6 100.000E+09
.ENDS
.SUBCKT C0402C360K5GAC 1 6
* Temp@ 25°C, Bias@ 0Vdc , Center Freq@ 10.000MHz
* KEMET Model RLC Cerm.JPG / Spice Version 3.9.5 
L1  1 2 43.00E-12
L2  2 3 817.00E-12
R1  3 4 425.34E-03
C1  4 6 35.82E-12
R2  2 5 14.97
C2  5 6 60.00E-15
R3  1 6 100.000E+09
.ENDS
.SUBCKT C0402C361K1HAC 1 6
* Temp@ 25°C, Bias@ 0Vdc , Center Freq@ 10.000MHz
* KEMET Model RLC Cerm.JPG / Spice Version 3.9.5 
L1  1 2 21.82E-12
L2  2 3 414.58E-12
R1  3 4 119.91E-03
C1  4 6 358.20E-12
R2  2 5 5.45
C2  5 6 60.00E-15
R3  1 6 100.000E+09
.ENDS
.SUBCKT C0402C369K5GAC 1 6
* Temp@ 25°C, Bias@ 0Vdc , Center Freq@ 10.000MHz
* KEMET Model RLC Cerm.JPG / Spice Version 3.9.5 
L1  1 2 28.18E-12
L2  2 3 535.33E-12
R1  3 4 1.71
C1  4 6 3.58E-12
R2  2 5 47.34
C2  5 6 60.00E-15
R3  1 6 100.000E+09
.ENDS
.SUBCKT C0402C390K5GAC 1 6
* Temp@ 25°C, Bias@ 0Vdc , Center Freq@ 10.000MHz
* KEMET Model RLC Cerm.JPG / Spice Version 3.9.5 
L1  1 2 43.35E-12
L2  2 3 823.65E-12
R1  3 4 404.30E-03
C1  4 6 38.80E-12
R2  2 5 14.33
C2  5 6 60.00E-15
R3  1 6 100.000E+09
.ENDS
.SUBCKT C0402C391K1HAC 1 6
* Temp@ 25°C, Bias@ 0Vdc , Center Freq@ 10.000MHz
* KEMET Model RLC Cerm.JPG / Spice Version 3.9.5 