.SUBCKT T409A105M010AH4250 1 8
* Temp@ 25°C, Bias@ 0Vdc , Center Freq@ 300.000kHz
* KEMET Model RLC Tant5RC.JPG / Spice Version 3.9.5 
L1 1 2 1.50E-09
R6 2 8 20.000E+06
R1 2 3 1.32
C1 3 8 32.26E-09
R2 3 4 579.60E-03
C2 4 8 64.52E-09
R3 4 5 579.60E-03
C3 5 8 129.03E-09
R4 5 6 579.60E-03
C4 6 8 258.06E-09
R5 6 7 579.60E-03
C5 7 8 516.13E-09
.ENDS
.SUBCKT T409A155M006AH4250 1 8
* Temp@ 25°C, Bias@ 0Vdc , Center Freq@ 300.000kHz
* KEMET Model RLC Tant5RC.JPG / Spice Version 3.9.5 
L1 1 2 1.50E-09
R6 2 8 12.600E+06
R1 2 3 1.50
C1 3 8 48.39E-09
R2 3 4 668.03E-03
C2 4 8 96.77E-09
R3 4 5 668.03E-03
C3 5 8 193.55E-09
R4 5 6 668.03E-03
C4 6 8 387.10E-09
R5 6 7 668.03E-03
C5 7 8 774.19E-09
.ENDS
.SUBCKT T409A224M035AH4250 1 8
* Temp@ 25°C, Bias@ 0Vdc , Center Freq@ 300.000kHz
* KEMET Model RLC Tant5RC.JPG / Spice Version 3.9.5 
L1 1 2 1.50E-09
R6 2 8 70.000E+06
R1 2 3 1.58
C1 3 8 7.10E-09
R2 3 4 708.60E-03
C2 4 8 14.19E-09
R3 4 5 708.60E-03
C3 5 8 28.39E-09
R4 5 6 708.60E-03
C4 6 8 56.77E-09
R5 6 7 708.60E-03
C5 7 8 113.55E-09
.ENDS
.SUBCKT T409A225M004AH4250 1 8
* Temp@ 25°C, Bias@ 0Vdc , Center Freq@ 300.000kHz
* KEMET Model RLC Tant5RC.JPG / Spice Version 3.9.5 
L1 1 2 1.50E-09
R6 2 8 8.000E+06
R1 2 3 1.12
C1 3 8 70.97E-09
R2 3 4 477.17E-03
C2 4 8 141.94E-09
R3 4 5 477.17E-03
C3 5 8 283.87E-09
R4 5 6 477.17E-03
C4 6 8 567.74E-09
R5 6 7 477.17E-03
C5 7 8 1.14E-06
.ENDS
.SUBCKT T409A334M025AH4250 1 8
* Temp@ 25°C, Bias@ 0Vdc , Center Freq@ 300.000kHz
* KEMET Model RLC Tant5RC.JPG / Spice Version 3.9.5 
L1 1 2 1.50E-09
R6 2 8 50.000E+06
R1 2 3 1.53
C1 3 8 10.65E-09
R2 3 4 685.80E-03
C2 4 8 21.29E-09
R3 4 5 685.80E-03
C3 5 8 42.58E-09
R4 5 6 685.80E-03
C4 6 8 85.16E-09
R5 6 7 685.80E-03
C5 7 8 170.32E-09
.ENDS
.SUBCKT T409A474M020AH4250 1 8
* Temp@ 25°C, Bias@ 0Vdc , Center Freq@ 300.000kHz
* KEMET Model RLC Tant5RC.JPG / Spice Version 3.9.5 
L1 1 2 1.50E-09
R6 2 8 40.000E+06
R1 2 3 1.49
C1 3 8 15.16E-09
R2 3 4 663.56E-03
C2 4 8 30.32E-09
R3 4 5 663.56E-03
C3 5 8 60.65E-09
R4 5 6 663.56E-03
C4 6 8 121.29E-09
R5 6 7 663.56E-03
C5 7 8 242.58E-09
.ENDS
.SUBCKT T409A684M015AH4250 1 8
* Temp@ 25°C, Bias@ 0Vdc , Center Freq@ 300.000kHz
* KEMET Model RLC Tant5RC.JPG / Spice Version 3.9.5 
L1 1 2 1.50E-09
R6 2 8 30.000E+06
R1 2 3 1.72
C1 3 8 21.94E-09
R2 3 4 779.43E-03
C2 4 8 43.87E-09
R3 4 5 779.43E-03
C3 5 8 87.74E-09
R4 5 6 779.43E-03
C4 6 8 175.48E-09
R5 6 7 779.43E-03
C5 7 8 350.97E-09
.ENDS
.SUBCKT T409B105M020AH4250 1 8
* Temp@ 25°C, Bias@ 0Vdc , Center Freq@ 300.000kHz
* KEMET Model RLC Tant5RC.JPG / Spice Version 3.9.5 
L1 1 2 1.50E-09
R6 2 8 40.000E+06
R1 2 3 1.06
C1 3 8 32.26E-09
R2 3 4 448.58E-03
C2 4 8 64.52E-09
R3 4 5 448.58E-03
C3 5 8 129.03E-09
R4 5 6 448.58E-03
C4 6 8 258.06E-09
R5 6 7 448.58E-03
C5 7 8 516.13E-09
.ENDS
.SUBCKT T409B155M015AH4250 1 8
* Temp@ 25°C, Bias@ 0Vdc , Center Freq@ 300.000kHz
* KEMET Model RLC Tant5RC.JPG / Spice Version 3.9.5 
L1 1 2 1.50E-09
R6 2 8 30.000E+06
R1 2 3 918.28E-03
C1 3 8 48.39E-09
R2 3 4 377.54E-03
C2 4 8 96.77E-09
R3 4 5 377.54E-03
C3 5 8 193.55E-09
R4 5 6 377.54E-03
C4 6 8 387.10E-09
R5 6 7 377.54E-03
C5 7 8 774.19E-09
.ENDS
.SUBCKT T409B225M010AH4250 1 8
* Temp@ 25°C, Bias@ 0Vdc , Center Freq@ 300.000kHz
* KEMET Model RLC Tant5RC.JPG / Spice Version 3.9.5 
L1 1 2 1.50E-09
R6 2 8 20.000E+06
R1 2 3 820.61E-03
C1 3 8 70.97E-09
R2 3 4 328.70E-03
C2 4 8 141.94E-09
R3 4 5 328.70E-03
C3 5 8 283.87E-09
R4 5 6 328.70E-03
C4 6 8 567.74E-09
R5 6 7 328.70E-03
C5 7 8 1.14E-06
.ENDS
.SUBCKT T409B335M006AH4250 1 8
* Temp@ 25°C, Bias@ 0Vdc , Center Freq@ 300.000kHz
* KEMET Model RLC Tant5RC.JPG / Spice Version 3.9.5 
L1 1 2 1.50E-09
R6 2 8 12.600E+06
R1 2 3 1.07
C1 3 8 106.45E-09
R2 3 4 453.27E-03
C2 4 8 212.90E-09
R3 4 5 453.27E-03
C3 5 8 425.81E-09
R4 5 6 453.27E-03
C4 6 8 851.61E-09
R5 6 7 453.27E-03
C5 7 8 1.70E-06
.ENDS
.SUBCKT T409B474M035AH4250 1 8
* Temp@ 25°C, Bias@ 0Vdc , Center Freq@ 300.000kHz
* KEMET Model RLC Tant5RC.JPG / Spice Version 3.9.5 
L1 1 2 1.50E-09
R6 2 8 70.000E+06
R1 2 3 1.47
C1 3 8 15.16E-09
R2 3 4 652.37E-03
C2 4 8 30.32E-09
R3 4 5 652.37E-03
C3 5 8 60.65E-09
R4 5 6 652.37E-03
C4 6 8 121.29E-09
R5 6 7 652.37E-03
C5 7 8 242.58E-09
.ENDS
.SUBCKT T409B475M004AH4250 1 8
* Temp@ 25°C, Bias@ 0Vdc , Center Freq@ 300.000kHz
* KEMET Model RLC Tant5RC.JPG / Spice Version 3.9.5 
L1 1 2 1.50E-09
R6 2 8 8.000E+06
R1 2 3 703.44E-03
C1 3 8 151.61E-09
R2 3 4 270.12E-03
C2 4 8 303.23E-09
R3 4 5 270.12E-03
C3 5 8 606.45E-09
R4 5 6 270.12E-03
C4 6 8 1.21E-06
R5 6 7 270.12E-03
C5 7 8 2.43E-06
.ENDS
.SUBCKT T409B684M020AH4250 1 8
* Temp@ 25°C, Bias@ 0Vdc , Center Freq@ 300.000kHz
* KEMET Model RLC Tant5RC.JPG / Spice Version 3.9.5 
L1 1 2 1.50E-09
R6 2 8 40.000E+06
R1 2 3 1.30
C1 3 8 21.94E-09
R2 3 4 566.88E-03
C2 4 8 43.87E-09
R3 4 5 566.88E-03
C3 5 8 87.74E-09
R4 5 6 566.88E-03
C4 6 8 175.48E-09
R5 6 7 566.88E-03
C5 7 8 350.97E-09
.ENDS
.SUBCKT T409B684M025AH4250 1 8
* Temp@ 25°C, Bias@ 0Vdc , Center Freq@ 300.000kHz
* KEMET Model RLC Tant5RC.JPG / Spice Version 3.9.5 
L1 1 2 1.50E-09
R6 2 8 50.000E+06
R1 2 3 1.34
C1 3 8 21.94E-09
R2 3 4 589.20E-03
C2 4 8 43.87E-09
R3 4 5 589.20E-03
C3 5 8 87.74E-09
R4 5 6 589.20E-03
C4 6 8 175.48E-09
R5 6 7 589.20E-03
C5 7 8 350.97E-09
.ENDS
.SUBCKT T409C105M025AH4250 1 8
* Temp@ 25°C, Bias@ 0Vdc , Center Freq@ 300.000kHz
* KEMET Model RLC Tant5RC.JPG / Spice Version 3.9.5 
L1 1 2 2.00E-09
R6 2 8 50.000E+06
R1 2 3 895.36E-03
C1 3 8 32.26E-09
R2 3 4 380.36E-03
C2 4 8 64.52E-09
R3 4 5 380.36E-03
C3 5 8 129.03E-09
R4 5 6 380.36E-03
C4 6 8 258.06E-09
R5 6 7 380.36E-03
C5 7 8 516.13E-09
.ENDS
.SUBCKT T409C155M020AH4250 1 8
* Temp@ 25°C, Bias@ 0Vdc , Center Freq@ 300.000kHz
* KEMET Model RLC Tant5RC.JPG / Spice Version 3.9.5 
L1 1 2 2.00E-09
R6 2 8 40.000E+06
R1 2 3 957.99E-03
C1 3 8 48.39E-09
R2 3 4 411.67E-03
C2 4 8 96.77E-09
R3 4 5 411.67E-03
C3 5 8 193.55E-09
R4 5 6 411.67E-03
C4 6 8 387.10E-09
R5 6 7 411.67E-03
C5 7 8 774.19E-09
.ENDS
.SUBCKT T409C225M015AH4250 1 8
* Temp@ 25°C, Bias@ 0Vdc , Center Freq@ 300.000kHz
* KEMET Model RLC Tant5RC.JPG / Spice Version 3.9.5 
L1 1 2 2.00E-09
R6 2 8 30.000E+06
R1 2 3 985.54E-03
C1 3 8 70.97E-09
R2 3 4 425.45E-03
C2 4 8 141.94E-09
R3 4 5 425.45E-03
C3 5 8 283.87E-09
R4 5 6 425.45E-03
C4 6 8 567.74E-09
R5 6 7 425.45E-03
C5 7 8 1.14E-06
.ENDS
.SUBCKT T409C335M010AH4250 1 8
* Temp@ 25°C, Bias@ 0Vdc , Center Freq@ 300.000kHz
* KEMET Model RLC Tant5RC.JPG / Spice Version 3.9.5 
L1 1 2 2.00E-09
R6 2 8 20.000E+06
R1 2 3 842.42E-03
C1 3 8 106.45E-09
R2 3 4 353.89E-03
C2 4 8 212.90E-09
R3 4 5 353.89E-03
C3 5 8 425.81E-09
R4 5 6 353.89E-03
C4 6 8 851.61E-09
R5 6 7 353.89E-03
C5 7 8 1.70E-06
.ENDS
.SUBCKT T409C475M006AH4250 1 8
* Temp@ 25°C, Bias@ 0Vdc , Center Freq@ 300.000kHz
* KEMET Model RLC Tant5RC.JPG / Spice Version 3.9.5 
L1 1 2 2.00E-09
R6 2 8 12.600E+06
R1 2 3 468.90E-03
C1 3 8 151.61E-09
R2 3 4 167.13E-03
C2 4 8 303.23E-09
R3 4 5 167.13E-03
C3 5 8 606.45E-09
R4 5 6 167.13E-03
C4 6 8 1.21E-06
R5 6 7 167.13E-03
C5 7 8 2.43E-06
.ENDS
.SUBCKT T409C684M035AH4250 1 8
* Temp@ 25°C, Bias@ 0Vdc , Center Freq@ 300.000kHz
* KEMET Model RLC Tant5RC.JPG / Spice Version 3.9.5 
L1 1 2 2.00E-09
R6 2 8 70.000E+06
R1 2 3 1.21
C1 3 8 21.94E-09
R2 3 4 539.87E-03
C2 4 8 43.87E-09
R3 4 5 539.87E-03
C3 5 8 87.74E-09
R4 5 6 539.87E-03
C4 6 8 175.48E-09
R5 6 7 539.87E-03
C5 7 8 350.97E-09
.ENDS
.SUBCKT T409C685M004AH4250 1 8
* Temp@ 25°C, Bias@ 0Vdc , Center Freq@ 300.000kHz
* KEMET Model RLC Tant5RC.JPG / Spice Version 3.9.5 
L1 1 2 2.00E-09
R6 2 8 8.000E+06
R1 2 3 555.45E-03
C1 3 8 219.35E-09
R2 3 4 210.41E-03
C2 4 8 438.71E-09
R3 4 5 210.41E-03
C3 5 8 877.42E-09
R4 5 6 210.41E-03
C4 6 8 1.75E-06
R5 6 7 210.41E-03
C5 7 8 3.51E-06
.ENDS
.SUBCKT T409D105M035AH4250 1 8
* Temp@ 25°C, Bias@ 0Vdc , Center Freq@ 300.000kHz
* KEMET Model RLC Tant5RC.JPG / Spice Version 3.9.5 
L1 1 2 1.30E-09
R6 2 8 70.000E+06
R1 2 3 752.15E-03
C1 3 8 32.26E-09
R2 3 4 294.47E-03
C2 4 8 64.52E-09
R3 4 5 294.47E-03
C3 5 8 129.03E-09
R4 5 6 294.47E-03
C4 6 8 258.06E-09
R5 6 7 294.47E-03
C5 7 8 516.13E-09
.ENDS
.SUBCKT T409D106M004AH4250 1 8
* Temp@ 25°C, Bias@ 0Vdc , Center Freq@ 300.000kHz
* KEMET Model RLC Tant5RC.JPG / Spice Version 3.9.5 
L1 1 2 1.30E-09
R6 2 8 8.000E+06
R1 2 3 542.62E-03
C1 3 8 322.58E-09
R2 3 4 189.71E-03
C2 4 8 645.16E-09
R3 4 5 189.71E-03
C3 5 8 1.29E-06
R4 5 6 189.71E-03
C4 6 8 2.58E-06
R5 6 7 189.71E-03
C5 7 8 5.16E-06
.ENDS
.SUBCKT T409D155M025AH4250 1 8
* Temp@ 25°C, Bias@ 0Vdc , Center Freq@ 300.000kHz
* KEMET Model RLC Tant5RC.JPG / Spice Version 3.9.5 
L1 1 2 1.30E-09
R6 2 8 50.000E+06
R1 2 3 706.22E-03
C1 3 8 48.39E-09
R2 3 4 271.51E-03
C2 4 8 96.77E-09
R3 4 5 271.51E-03
C3 5 8 193.55E-09
R4 5 6 271.51E-03
C4 6 8 387.10E-09
R5 6 7 271.51E-03
C5 7 8 774.19E-09
.ENDS
.SUBCKT T409D225M020AH4250 1 8
* Temp@ 25°C, Bias@ 0Vdc , Center Freq@ 300.000kHz
* KEMET Model RLC Tant5RC.JPG / Spice Version 3.9.5 
L1 1 2 1.30E-09
R6 2 8 40.000E+06
R1 2 3 662.01E-03
C1 3 8 70.97E-09
R2 3 4 249.41E-03
C2 4 8 141.94E-09
R3 4 5 249.41E-03
C3 5 8 283.87E-09
R4 5 6 249.41E-03
C4 6 8 567.74E-09
R5 6 7 249.41E-03
C5 7 8 1.14E-06
.ENDS
.SUBCKT T409D335M015AH4250 1 8
* Temp@ 25°C, Bias@ 0Vdc , Center Freq@ 300.000kHz
* KEMET Model RLC Tant5RC.JPG / Spice Version 3.9.5 
L1 1 2 1.30E-09
R6 2 8 30.000E+06
R1 2 3 660.37E-03
C1 3 8 106.45E-09
R2 3 4 248.58E-03
C2 4 8 212.90E-09
R3 4 5 248.58E-03
C3 5 8 425.81E-09
R4 5 6 248.58E-03
C4 6 8 851.61E-09
R5 6 7 248.58E-03
C5 7 8 1.70E-06
.ENDS
.SUBCKT T409D475M010AH4250 1 8
* Temp@ 25°C, Bias@ 0Vdc , Center Freq@ 300.000kHz
* KEMET Model RLC Tant5RC.JPG / Spice Version 3.9.5 
L1 1 2 1.30E-09
R6 2 8 20.000E+06
R1 2 3 697.90E-03
C1 3 8 151.61E-09
R2 3 4 267.35E-03
C2 4 8 303.23E-09
R3 4 5 267.35E-03
C3 5 8 606.45E-09
R4 5 6 267.35E-03
C4 6 8 1.21E-06
R5 6 7 267.35E-03
C5 7 8 2.43E-06
.ENDS
.SUBCKT T409D685M006AH4250 1 8
* Temp@ 25°C, Bias@ 0Vdc , Center Freq@ 300.000kHz
* KEMET Model RLC Tant5RC.JPG / Spice Version 3.9.5 
L1 1 2 1.30E-09
R6 2 8 12.600E+06
R1 2 3 610.83E-03
C1 3 8 219.35E-09
R2 3 4 223.82E-03
C2 4 8 438.71E-09
R3 4 5 223.82E-03
C3 5 8 877.42E-09
R4 5 6 223.82E-03
C4 6 8 1.75E-06
R5 6 7 223.82E-03
C5 7 8 3.51E-06
.ENDS
.SUBCKT T409E106M006AH4250 1 8
* Temp@ 25°C, Bias@ 0Vdc , Center Freq@ 300.000kHz
* KEMET Model RLC Tant5RC.JPG / Spice Version 3.9.5 
L1 1 2 1.60E-09
R6 2 8 10.500E+06
R1 2 3 563.22E-03
C1 3 8 322.58E-09
R2 3 4 220.41E-03
C2 4 8 645.16E-09
R3 4 5 220.41E-03
C3 5 8 1.29E-06
R4 5 6 220.41E-03
C4 6 8 2.58E-06
R5 6 7 220.41E-03
C5 7 8 5.16E-06
.ENDS
.SUBCKT T409E155M035AH4250 1 8
* Temp@ 25°C, Bias@ 0Vdc , Center Freq@ 300.000kHz
* KEMET Model RLC Tant5RC.JPG / Spice Version 3.9.5 
L1 1 2 1.60E-09
R6 2 8 70.000E+06
R1 2 3 882.48E-03
C1 3 8 48.39E-09
R2 3 4 380.04E-03
C2 4 8 96.77E-09
R3 4 5 380.04E-03
C3 5 8 193.55E-09
R4 5 6 380.04E-03
C4 6 8 387.10E-09
R5 6 7 380.04E-03
C5 7 8 774.19E-09
.ENDS
.SUBCKT T409E156M004AH4250 1 8
* Temp@ 25°C, Bias@ 0Vdc , Center Freq@ 300.000kHz
* KEMET Model RLC Tant5RC.JPG / Spice Version 3.9.5 
L1 1 2 1.60E-09
R6 2 8 6.667E+06
R1 2 3 559.34E-03
C1 3 8 483.87E-09
R2 3 4 218.47E-03
C2 4 8 967.74E-09
R3 4 5 218.47E-03
C3 5 8 1.94E-06
R4 5 6 218.47E-03
C4 6 8 3.87E-06
R5 6 7 218.47E-03
C5 7 8 7.74E-06
.ENDS
.SUBCKT T409E225M025AH4250 1 8
* Temp@ 25°C, Bias@ 0Vdc , Center Freq@ 300.000kHz
* KEMET Model RLC Tant5RC.JPG / Spice Version 3.9.5 
L1 1 2 1.60E-09
R6 2 8 41.670E+06
R1 2 3 939.46E-03
C1 3 8 70.97E-09
R2 3 4 408.53E-03
C2 4 8 141.94E-09
R3 4 5 408.53E-03
C3 5 8 283.87E-09
R4 5 6 408.53E-03
C4 6 8 567.74E-09
R5 6 7 408.53E-03
C5 7 8 1.14E-06
.ENDS
.SUBCKT T409E335M020AH4250 1 8
* Temp@ 25°C, Bias@ 0Vdc , Center Freq@ 300.000kHz
* KEMET Model RLC Tant5RC.JPG / Spice Version 3.9.5 
L1 1 2 1.60E-09
R6 2 8 28.570E+06
R1 2 3 844.08E-03
C1 3 8 106.45E-09
R2 3 4 360.84E-03
C2 4 8 212.90E-09
R3 4 5 360.84E-03
C3 5 8 425.81E-09
R4 5 6 360.84E-03
C4 6 8 851.61E-09
R5 6 7 360.84E-03
C5 7 8 1.70E-06
.ENDS
.SUBCKT T409E475M015AH4250 1 8
* Temp@ 25°C, Bias@ 0Vdc , Center Freq@ 300.000kHz
* KEMET Model RLC Tant5RC.JPG / Spice Version 3.9.5 
L1 1 2 1.60E-09
R6 2 8 21.430E+06
R1 2 3 793.09E-03
C1 3 8 151.61E-09
R2 3 4 335.34E-03
C2 4 8 303.23E-09
R3 4 5 335.34E-03
C3 5 8 606.45E-09
R4 5 6 335.34E-03
C4 6 8 1.21E-06
R5 6 7 335.34E-03
C5 7 8 2.43E-06
.ENDS
.SUBCKT T409E685M010AH4250 1 8
* Temp@ 25°C, Bias@ 0Vdc , Center Freq@ 300.000kHz
* KEMET Model RLC Tant5RC.JPG / Spice Version 3.9.5 
L1 1 2 1.60E-09
R6 2 8 14.290E+06
R1 2 3 766.84E-03
C1 3 8 219.35E-09
R2 3 4 322.22E-03
C2 4 8 438.71E-09
R3 4 5 322.22E-03
C3 5 8 877.42E-09
R4 5 6 322.22E-03
C4 6 8 1.75E-06
R5 6 7 322.22E-03
C5 7 8 3.51E-06
.ENDS
.SUBCKT T409F106M015AH4250 1 8
* Temp@ 25°C, Bias@ 0Vdc , Center Freq@ 300.000kHz
* KEMET Model RLC Tant5RC.JPG / Spice Version 3.9.5 
L1 1 2 2.00E-09
R6 2 8 10.000E+06
R1 2 3 431.77E-03
C1 3 8 322.58E-09
R2 3 4 144.49E-03
C2 4 8 645.16E-09
R3 4 5 144.49E-03
C3 5 8 1.29E-06
R4 5 6 144.49E-03
C4 6 8 2.58E-06
R5 6 7 144.49E-03
C5 7 8 5.16E-06
.ENDS
.SUBCKT T409F156M010AH4250 1 8
* Temp@ 25°C, Bias@ 0Vdc , Center Freq@ 300.000kHz
* KEMET Model RLC Tant5RC.JPG / Spice Version 3.9.5 
L1 1 2 2.00E-09
R6 2 8 6.667E+06
R1 2 3 549.37E-03
C1 3 8 483.87E-09
R2 3 4 203.29E-03
C2 4 8 967.74E-09
R3 4 5 203.29E-03
C3 5 8 1.94E-06
R4 5 6 203.29E-03
C4 6 8 3.87E-06
R5 6 7 203.29E-03
C5 7 8 7.74E-06
.ENDS
.SUBCKT T409F226M006AH4250 1 8
* Temp@ 25°C, Bias@ 0Vdc , Center Freq@ 300.000kHz
* KEMET Model RLC Tant5RC.JPG / Spice Version 3.9.5 
L1 1 2 2.00E-09
R6 2 8 4.500E+06
R1 2 3 535.69E-03
C1 3 8 709.68E-09
R2 3 4 196.44E-03
C2 4 8 1.42E-06
R3 4 5 196.44E-03
C3 5 8 2.84E-06
R4 5 6 196.44E-03
C4 6 8 5.68E-06
R5 6 7 196.44E-03
C5 7 8 11.35E-06
.ENDS
.SUBCKT T409F335M035AH4250 1 8
* Temp@ 25°C, Bias@ 0Vdc , Center Freq@ 300.000kHz
* KEMET Model RLC Tant5RC.JPG / Spice Version 3.9.5 
L1 1 2 2.00E-09
R6 2 8 29.170E+06
R1 2 3 676.91E-03
C1 3 8 106.45E-09
R2 3 4 267.06E-03
C2 4 8 212.90E-09
R3 4 5 267.06E-03
C3 5 8 425.81E-09
R4 5 6 267.06E-03
C4 6 8 851.61E-09
R5 6 7 267.06E-03
C5 7 8 1.70E-06
.ENDS
.SUBCKT T409F336M004AH4250 1 8
* Temp@ 25°C, Bias@ 0Vdc , Center Freq@ 300.000kHz
* KEMET Model RLC Tant5RC.JPG / Spice Version 3.9.5 
L1 1 2 2.00E-09
R6 2 8 3.077E+06
R1 2 3 529.58E-03
C1 3 8 1.06E-06
R2 3 4 193.39E-03
C2 4 8 2.13E-06
R3 4 5 193.39E-03
C3 5 8 4.26E-06
R4 5 6 193.39E-03
C4 6 8 8.52E-06
R5 6 7 193.39E-03
C5 7 8 17.03E-06
.ENDS
.SUBCKT T409F475M025AH4250 1 8
* Temp@ 25°C, Bias@ 0Vdc , Center Freq@ 300.000kHz
* KEMET Model RLC Tant5RC.JPG / Spice Version 3.9.5 
L1 1 2 2.00E-09
R6 2 8 20.830E+06
R1 2 3 646.62E-03
C1 3 8 151.61E-09
R2 3 4 251.91E-03
C2 4 8 303.23E-09
R3 4 5 251.91E-03
C3 5 8 606.45E-09
R4 5 6 251.91E-03
C4 6 8 1.21E-06
R5 6 7 251.91E-03
C5 7 8 2.43E-06
.ENDS
.SUBCKT T409F685M020AH4250 1 8
* Temp@ 25°C, Bias@ 0Vdc , Center Freq@ 300.000kHz
* KEMET Model RLC Tant5RC.JPG / Spice Version 3.9.5 
L1 1 2 2.00E-09
R6 2 8 14.290E+06
R1 2 3 548.99E-03
C1 3 8 219.35E-09
R2 3 4 203.09E-03
C2 4 8 438.71E-09
R3 4 5 203.09E-03
C3 5 8 877.42E-09
R4 5 6 203.09E-03
C4 6 8 1.75E-06
R5 6 7 203.09E-03
C5 7 8 3.51E-06
.ENDS
.SUBCKT T409G106M025AH4250 1 8
* Temp@ 25°C, Bias@ 0Vdc , Center Freq@ 300.000kHz
* KEMET Model RLC Tant5RC.JPG / Spice Version 3.9.5 
L1 1 2 2.10E-09
R6 2 8 10.000E+06
R1 2 3 778.93E-03
C1 3 8 322.58E-09
R2 3 4 328.26E-03
C2 4 8 645.16E-09
R3 4 5 328.26E-03
C3 5 8 1.29E-06
R4 5 6 328.26E-03
C4 6 8 2.58E-06
R5 6 7 328.26E-03
C5 7 8 5.16E-06
.ENDS
.SUBCKT T409G156M020AH4250 1 8
* Temp@ 25°C, Bias@ 0Vdc , Center Freq@ 300.000kHz
* KEMET Model RLC Tant5RC.JPG / Spice Version 3.9.5 
L1 1 2 2.10E-09
R6 2 8 6.667E+06
R1 2 3 718.37E-03
C1 3 8 483.87E-09
R2 3 4 297.98E-03
C2 4 8 967.74E-09
R3 4 5 297.98E-03
C3 5 8 1.94E-06
R4 5 6 297.98E-03
C4 6 8 3.87E-06
R5 6 7 297.98E-03
C5 7 8 7.74E-06
.ENDS
.SUBCKT T409G226M015AH4250 1 8
* Temp@ 25°C, Bias@ 0Vdc , Center Freq@ 300.000kHz
* KEMET Model RLC Tant5RC.JPG / Spice Version 3.9.5 
L1 1 2 2.10E-09
R6 2 8 4.545E+06
R1 2 3 695.66E-03
C1 3 8 709.68E-09
R2 3 4 286.63E-03
C2 4 8 1.42E-06
R3 4 5 286.63E-03
C3 5 8 2.84E-06
R4 5 6 286.63E-03
C4 6 8 5.68E-06
R5 6 7 286.63E-03
C5 7 8 11.35E-06
.ENDS
.SUBCKT T409G336M010AH4250 1 8
* Temp@ 25°C, Bias@ 0Vdc , Center Freq@ 300.000kHz
* KEMET Model RLC Tant5RC.JPG / Spice Version 3.9.5 
L1 1 2 2.10E-09
R6 2 8 3.030E+06
R1 2 3 684.71E-03
C1 3 8 1.06E-06
R2 3 4 281.16E-03
C2 4 8 2.13E-06
R3 4 5 281.16E-03
C3 5 8 4.26E-06
R4 5 6 281.16E-03
C4 6 8 8.52E-06
R5 6 7 281.16E-03
C5 7 8 17.03E-06
.ENDS
.SUBCKT T409G475M035AH4250 1 8
* Temp@ 25°C, Bias@ 0Vdc , Center Freq@ 300.000kHz
* KEMET Model RLC Tant5RC.JPG / Spice Version 3.9.5 
L1 1 2 2.10E-09
R6 2 8 21.880E+06
R1 2 3 854.52E-03
C1 3 8 151.61E-09
R2 3 4 366.06E-03
C2 4 8 303.23E-09
R3 4 5 366.06E-03
C3 5 8 606.45E-09
R4 5 6 366.06E-03
C4 6 8 1.21E-06
R5 6 7 366.06E-03
C5 7 8 2.43E-06
.ENDS
.SUBCKT T409G476M006AH4250 1 8
* Temp@ 25°C, Bias@ 0Vdc , Center Freq@ 300.000kHz
* KEMET Model RLC Tant5RC.JPG / Spice Version 3.9.5 
L1 1 2 2.10E-09
R6 2 8 2.100E+06
R1 2 3 664.49E-03
C1 3 8 1.52E-06
R2 3 4 271.04E-03
C2 4 8 3.03E-06
R3 4 5 271.04E-03
C3 5 8 6.06E-06
R4 5 6 271.04E-03
C4 6 8 12.13E-06
R5 6 7 271.04E-03
C5 7 8 24.26E-06
.ENDS
.SUBCKT T409G685M025AH4250 1 8
* Temp@ 25°C, Bias@ 0Vdc , Center Freq@ 300.000kHz
* KEMET Model RLC Tant5RC.JPG / Spice Version 3.9.5 
L1 1 2 2.10E-09
R6 2 8 14.710E+06
R1 2 3 755.82E-03
C1 3 8 219.35E-09
R2 3 4 316.71E-03
C2 4 8 438.71E-09
R3 4 5 316.71E-03
C3 5 8 877.42E-09
R4 5 6 316.71E-03
C4 6 8 1.75E-06
R5 6 7 316.71E-03
C5 7 8 3.51E-06
.ENDS
.SUBCKT T409G686M004AH4250 1 8
* Temp@ 25°C, Bias@ 0Vdc , Center Freq@ 300.000kHz
* KEMET Model RLC Tant5RC.JPG / Spice Version 3.9.5 
L1 1 2 2.10E-09
R6 2 8 1.481E+06
R1 2 3 651.48E-03
C1 3 8 2.19E-06
R2 3 4 264.54E-03
C2 4 8 4.39E-06
R3 4 5 264.54E-03
C3 5 8 8.77E-06
R4 5 6 264.54E-03
C4 6 8 17.55E-06
R5 6 7 264.54E-03
C5 7 8 35.10E-06
.ENDS
.SUBCKT T409H107M004AH4250 1 8
* Temp@ 25°C, Bias@ 0Vdc , Center Freq@ 300.000kHz
* KEMET Model RLC Tant5RC.JPG / Spice Version 3.9.5 
L1 1 2 2.10E-09
R6 2 8 1.000E+06
R1 2 3 624.52E-03
C1 3 8 3.23E-06
R2 3 4 251.06E-03
C2 4 8 6.45E-06
R3 4 5 251.06E-03
C3 5 8 12.90E-06
R4 5 6 251.06E-03
C4 6 8 25.81E-06
R5 6 7 251.06E-03
C5 7 8 51.61E-06
.ENDS
.SUBCKT T409H156M025AH4250 1 8
* Temp@ 25°C, Bias@ 0Vdc , Center Freq@ 300.000kHz
* KEMET Model RLC Tant5RC.JPG / Spice Version 3.9.5 
L1 1 2 2.10E-09
R6 2 8 6.579E+06
R1 2 3 700.52E-03
C1 3 8 483.87E-09
R2 3 4 289.06E-03
C2 4 8 967.74E-09
R3 4 5 289.06E-03
C3 5 8 1.94E-06
R4 5 6 289.06E-03
C4 6 8 3.87E-06
R5 6 7 289.06E-03
C5 7 8 7.74E-06
.ENDS
.SUBCKT T409H226M020AH4250 1 8
* Temp@ 25°C, Bias@ 0Vdc , Center Freq@ 300.000kHz
* KEMET Model RLC Tant5RC.JPG / Spice Version 3.9.5 
L1 1 2 2.10E-09
R6 2 8 4.545E+06
R1 2 3 677.22E-03
C1 3 8 709.68E-09
R2 3 4 277.41E-03
C2 4 8 1.42E-06
R3 4 5 277.41E-03
C3 5 8 2.84E-06
R4 5 6 277.41E-03
C4 6 8 5.68E-06
R5 6 7 277.41E-03
C5 7 8 11.35E-06
.ENDS
.SUBCKT T409H336M015AH4250 1 8
* Temp@ 25°C, Bias@ 0Vdc , Center Freq@ 300.000kHz
* KEMET Model RLC Tant5RC.JPG / Spice Version 3.9.5 
L1 1 2 2.10E-09
R6 2 8 3.000E+06
R1 2 3 659.98E-03
C1 3 8 1.06E-06
R2 3 4 268.79E-03
C2 4 8 2.13E-06
R3 4 5 268.79E-03
C3 5 8 4.26E-06
R4 5 6 268.79E-03
C4 6 8 8.52E-06
R5 6 7 268.79E-03
C5 7 8 17.03E-06
.ENDS
.SUBCKT T409H476M010AH4250 1 8
* Temp@ 25°C, Bias@ 0Vdc , Center Freq@ 300.000kHz
* KEMET Model RLC Tant5RC.JPG / Spice Version 3.9.5 
L1 1 2 2.10E-09
R6 2 8 2.128E+06
R1 2 3 637.50E-03
C1 3 8 1.52E-06
R2 3 4 257.55E-03
C2 4 8 3.03E-06
R3 4 5 257.55E-03
C3 5 8 6.06E-06
R4 5 6 257.55E-03
C4 6 8 12.13E-06
R5 6 7 257.55E-03
C5 7 8 24.26E-06
.ENDS
.SUBCKT T409H685M035AH4250 1 8
* Temp@ 25°C, Bias@ 0Vdc , Center Freq@ 300.000kHz
* KEMET Model RLC Tant5RC.JPG / Spice Version 3.9.5 
L1 1 2 2.10E-09
R6 2 8 14.580E+06
R1 2 3 723.05E-03
C1 3 8 219.35E-09
R2 3 4 300.33E-03
C2 4 8 438.71E-09
R3 4 5 300.33E-03
C3 5 8 877.42E-09
R4 5 6 300.33E-03
C4 6 8 1.75E-06
R5 6 7 300.33E-03
C5 7 8 3.51E-06
.ENDS
.SUBCKT T409H686M006AH4250 1 8
* Temp@ 25°C, Bias@ 0Vdc , Center Freq@ 300.000kHz
* KEMET Model RLC Tant5RC.JPG / Spice Version 3.9.5 
L1 1 2 2.10E-09
R6 2 8 1.465E+06
R1 2 3 629.26E-03
C1 3 8 2.19E-06
R2 3 4 253.43E-03
C2 4 8 4.39E-06
R3 4 5 253.43E-03
C3 5 8 8.77E-06
R4 5 6 253.43E-03
C4 6 8 17.55E-06
R5 6 7 253.43E-03
C5 7 8 35.10E-06
.ENDS
.SUBCKT T419A105M015AH4250 1 8
* Temp@ 25°C, Bias@ 0Vdc , Center Freq@ 300.000kHz
* KEMET Model RLC Tant5RC.JPG / Spice Version 3.9.5 
L1 1 2 1.50E-09
R6 2 8 30.000E+06
R1 2 3 3.97
C1 3 8 32.26E-09
R2 3 4 1.91
C2 4 8 64.52E-09
R3 4 5 1.91
C3 5 8 129.03E-09
R4 5 6 1.91
C4 6 8 258.06E-09
R5 6 7 1.91
C5 7 8 516.13E-09
.ENDS
.SUBCKT T419A105M020AH4250 1 8
* Temp@ 25°C, Bias@ 0Vdc , Center Freq@ 300.000kHz
* KEMET Model RLC Tant5RC.JPG / Spice Version 3.9.5 
L1 1 2 1.50E-09
R6 2 8 40.000E+06
R1 2 3 4.06
C1 3 8 32.26E-09
R2 3 4 1.96
C2 4 8 64.52E-09
R3 4 5 1.96
C3 5 8 129.03E-09
R4 5 6 1.96
C4 6 8 258.06E-09
R5 6 7 1.96
C5 7 8 516.13E-09
.ENDS
.SUBCKT T419A155M015AH4250 1 8
* Temp@ 25°C, Bias@ 0Vdc , Center Freq@ 300.000kHz
* KEMET Model RLC Tant5RC.JPG / Spice Version 3.9.5 
L1 1 2 1.50E-09
R6 2 8 30.000E+06
R1 2 3 3.03
C1 3 8 48.39E-09
R2 3 4 1.44
C2 4 8 96.77E-09
R3 4 5 1.44
C3 5 8 193.55E-09
R4 5 6 1.44
C4 6 8 387.10E-09
R5 6 7 1.44
C5 7 8 774.19E-09
.ENDS
.SUBCKT T419A225M010AH4250 1 8
* Temp@ 25°C, Bias@ 0Vdc , Center Freq@ 300.000kHz
* KEMET Model RLC Tant5RC.JPG / Spice Version 3.9.5 
L1 1 2 1.50E-09
R6 2 8 20.000E+06
R1 2 3 2.00
C1 3 8 70.97E-09
R2 3 4 929.67E-03
C2 4 8 141.94E-09
R3 4 5 929.67E-03
C3 5 8 283.87E-09
R4 5 6 929.67E-03
C4 6 8 567.74E-09
R5 6 7 929.67E-03
C5 7 8 1.14E-06
.ENDS
.SUBCKT T419A225M015AH4250 1 8
* Temp@ 25°C, Bias@ 0Vdc , Center Freq@ 300.000kHz
* KEMET Model RLC Tant5RC.JPG / Spice Version 3.9.5 
L1 1 2 1.50E-09
R6 2 8 30.000E+06
R1 2 3 2.06
C1 3 8 70.97E-09
R2 3 4 958.57E-03
C2 4 8 141.94E-09
R3 4 5 958.57E-03
C3 5 8 283.87E-09
R4 5 6 958.57E-03
C4 6 8 567.74E-09
R5 6 7 958.57E-03
C5 7 8 1.14E-06
.ENDS
.SUBCKT T419A334M035AH4250 1 8
* Temp@ 25°C, Bias@ 0Vdc , Center Freq@ 300.000kHz
* KEMET Model RLC Tant5RC.JPG / Spice Version 3.9.5 
L1 1 2 1.50E-09
R6 2 8 70.000E+06
R1 2 3 4.23
C1 3 8 10.65E-09
R2 3 4 2.04
C2 4 8 21.29E-09
R3 4 5 2.04
C3 5 8 42.58E-09
R4 5 6 2.04
C4 6 8 85.16E-09
R5 6 7 2.04
C5 7 8 170.32E-09
.ENDS
.SUBCKT T419A335M004AH4250 1 8
* Temp@ 25°C, Bias@ 0Vdc , Center Freq@ 300.000kHz
* KEMET Model RLC Tant5RC.JPG / Spice Version 3.9.5 
L1 1 2 1.50E-09
R6 2 8 8.000E+06
R1 2 3 1.75
C1 3 8 106.45E-09
R2 3 4 804.65E-03
C2 4 8 212.90E-09
R3 4 5 804.65E-03
C3 5 8 425.81E-09
R4 5 6 804.65E-03
C4 6 8 851.61E-09
R5 6 7 804.65E-03
C5 7 8 1.70E-06
.ENDS
.SUBCKT T419A335M006AH4250 1 8
* Temp@ 25°C, Bias@ 0Vdc , Center Freq@ 300.000kHz
* KEMET Model RLC Tant5RC.JPG / Spice Version 3.9.5 
L1 1 2 1.50E-09
R6 2 8 12.600E+06
R1 2 3 1.79
C1 3 8 106.45E-09
R2 3 4 823.80E-03
C2 4 8 212.90E-09
R3 4 5 823.80E-03
C3 5 8 425.81E-09
R4 5 6 823.80E-03
C4 6 8 851.61E-09
R5 6 7 823.80E-03
C5 7 8 1.70E-06
.ENDS
.SUBCKT T419A335M010AH4250 1 8
* Temp@ 25°C, Bias@ 0Vdc , Center Freq@ 300.000kHz
* KEMET Model RLC Tant5RC.JPG / Spice Version 3.9.5 
L1 1 2 1.50E-09
R6 2 8 20.000E+06
R1 2 3 1.88
C1 3 8 106.45E-09
R2 3 4 869.10E-03
C2 4 8 212.90E-09
R3 4 5 869.10E-03
C3 5 8 425.81E-09
R4 5 6 869.10E-03
C4 6 8 851.61E-09
R5 6 7 869.10E-03
C5 7 8 1.70E-06
.ENDS
.SUBCKT T419A474M025AH4250 1 8
* Temp@ 25°C, Bias@ 0Vdc , Center Freq@ 300.000kHz
* KEMET Model RLC Tant5RC.JPG / Spice Version 3.9.5 
L1 1 2 1.50E-09
R6 2 8 50.000E+06
R1 2 3 3.49
C1 3 8 15.16E-09
R2 3 4 1.67
C2 4 8 30.32E-09
R3 4 5 1.67
C3 5 8 60.65E-09
R4 5 6 1.67
C4 6 8 121.29E-09
R5 6 7 1.67
C5 7 8 242.58E-09
.ENDS
.SUBCKT T419A475M004AH4250 1 8
* Temp@ 25°C, Bias@ 0Vdc , Center Freq@ 300.000kHz
* KEMET Model RLC Tant5RC.JPG / Spice Version 3.9.5 
L1 1 2 1.50E-09
R6 2 8 8.000E+06
R1 2 3 1.60
C1 3 8 151.61E-09
R2 3 4 726.52E-03
C2 4 8 303.23E-09
R3 4 5 726.52E-03
C3 5 8 606.45E-09
R4 5 6 726.52E-03
C4 6 8 1.21E-06
R5 6 7 726.52E-03
C5 7 8 2.43E-06
.ENDS
.SUBCKT T419A475M006AH4250 1 8
* Temp@ 25°C, Bias@ 0Vdc , Center Freq@ 300.000kHz
* KEMET Model RLC Tant5RC.JPG / Spice Version 3.9.5 
L1 1 2 1.50E-09
R6 2 8 12.600E+06
R1 2 3 1.66
C1 3 8 151.61E-09
R2 3 4 758.58E-03
C2 4 8 303.23E-09
R3 4 5 758.58E-03
C3 5 8 606.45E-09
R4 5 6 758.58E-03
C4 6 8 1.21E-06
R5 6 7 758.58E-03
C5 7 8 2.43E-06
.ENDS
.SUBCKT T419A684M020AH4250 1 8
* Temp@ 25°C, Bias@ 0Vdc , Center Freq@ 300.000kHz
* KEMET Model RLC Tant5RC.JPG / Spice Version 3.9.5 
L1 1 2 1.50E-09
R6 2 8 40.000E+06
R1 2 3 5.21
C1 3 8 21.94E-09
R2 3 4 2.53
C2 4 8 43.87E-09
R3 4 5 2.53
C3 5 8 87.74E-09
R4 5 6 2.53
C4 6 8 175.48E-09
R5 6 7 2.53
C5 7 8 350.97E-09
.ENDS
.SUBCKT T419A685M004AH4250 1 8
* Temp@ 25°C, Bias@ 0Vdc , Center Freq@ 300.000kHz
* KEMET Model RLC Tant5RC.JPG / Spice Version 3.9.5 
L1 1 2 1.50E-09
R6 2 8 8.000E+06
R1 2 3 1.85
C1 3 8 219.35E-09
R2 3 4 853.57E-03
C2 4 8 438.71E-09
R3 4 5 853.57E-03
C3 5 8 877.42E-09
R4 5 6 853.57E-03
C4 6 8 1.75E-06
R5 6 7 853.57E-03
C5 7 8 3.51E-06
.ENDS
.SUBCKT T419B105M025AH4250 1 8
* Temp@ 25°C, Bias@ 0Vdc , Center Freq@ 300.000kHz
* KEMET Model RLC Tant5RC.JPG / Spice Version 3.9.5 
L1 1 2 1.50E-09
R6 2 8 50.000E+06
R1 2 3 1.59
C1 3 8 32.26E-09
R2 3 4 714.34E-03
C2 4 8 64.52E-09
R3 4 5 714.34E-03
C3 5 8 129.03E-09
R4 5 6 714.34E-03
C4 6 8 258.06E-09
R5 6 7 714.34E-03
C5 7 8 516.13E-09
.ENDS
.SUBCKT T419B106M004AH4250 1 8
* Temp@ 25°C, Bias@ 0Vdc , Center Freq@ 300.000kHz
* KEMET Model RLC Tant5RC.JPG / Spice Version 3.9.5 
L1 1 2 1.50E-09
R6 2 8 8.000E+06
R1 2 3 945.57E-03
C1 3 8 322.58E-09
R2 3 4 391.18E-03
C2 4 8 645.16E-09
R3 4 5 391.18E-03
C3 5 8 1.29E-06
R4 5 6 391.18E-03
C4 6 8 2.58E-06
R5 6 7 391.18E-03
C5 7 8 5.16E-06
.ENDS
.SUBCKT T419B106M006AH4250 1 8
* Temp@ 25°C, Bias@ 0Vdc , Center Freq@ 300.000kHz
* KEMET Model RLC Tant5RC.JPG / Spice Version 3.9.5 
L1 1 2 1.50E-09
R6 2 8 10.500E+06
R1 2 3 915.08E-03
C1 3 8 322.58E-09
R2 3 4 375.94E-03
C2 4 8 645.16E-09
R3 4 5 375.94E-03
C3 5 8 1.29E-06
R4 5 6 375.94E-03
C4 6 8 2.58E-06
R5 6 7 375.94E-03
C5 7 8 5.16E-06
.ENDS
.SUBCKT T419B106M010AH4250 1 8
* Temp@ 25°C, Bias@ 0Vdc , Center Freq@ 300.000kHz
* KEMET Model RLC Tant5RC.JPG / Spice Version 3.9.5 
L1 1 2 1.50E-09
R6 2 8 10.000E+06
R1 2 3 926.01E-03
C1 3 8 322.58E-09
R2 3 4 381.40E-03
C2 4 8 645.16E-09
R3 4 5 381.40E-03
C3 5 8 1.29E-06
R4 5 6 381.40E-03
C4 6 8 2.58E-06
R5 6 7 381.40E-03
C5 7 8 5.16E-06
.ENDS
.SUBCKT T419B155M020AH4250 1 8
* Temp@ 25°C, Bias@ 0Vdc , Center Freq@ 300.000kHz
* KEMET Model RLC Tant5RC.JPG / Spice Version 3.9.5 
L1 1 2 1.50E-09
R6 2 8 40.000E+06
R1 2 3 1.37
C1 3 8 48.39E-09
R2 3 4 601.07E-03
C2 4 8 96.77E-09
R3 4 5 601.07E-03
C3 5 8 193.55E-09
R4 5 6 601.07E-03
C4 6 8 387.10E-09
R5 6 7 601.07E-03
C5 7 8 774.19E-09
.ENDS
.SUBCKT T419B156M004AH4250 1 8
* Temp@ 25°C, Bias@ 0Vdc , Center Freq@ 300.000kHz
* KEMET Model RLC Tant5RC.JPG / Spice Version 3.9.5 
L1 1 2 1.50E-09
R6 2 8 6.667E+06
R1 2 3 923.04E-03
C1 3 8 483.87E-09
R2 3 4 379.92E-03
C2 4 8 967.74E-09
R3 4 5 379.92E-03
C3 5 8 1.94E-06
R4 5 6 379.92E-03
C4 6 8 3.87E-06
R5 6 7 379.92E-03
C5 7 8 7.74E-06
.ENDS
.SUBCKT T419B156M006AH4250 1 8
* Temp@ 25°C, Bias@ 0Vdc , Center Freq@ 300.000kHz
* KEMET Model RLC Tant5RC.JPG / Spice Version 3.9.5 
L1 1 2 1.50E-09
R6 2 8 7.000E+06
R1 2 3 890.97E-03
C1 3 8 483.87E-09
R2 3 4 363.89E-03
C2 4 8 967.74E-09
R3 4 5 363.89E-03
C3 5 8 1.94E-06
R4 5 6 363.89E-03
C4 6 8 3.87E-06
R5 6 7 363.89E-03
C5 7 8 7.74E-06
.ENDS
.SUBCKT T419B225M020AH4250 1 8
* Temp@ 25°C, Bias@ 0Vdc , Center Freq@ 300.000kHz
* KEMET Model RLC Tant5RC.JPG / Spice Version 3.9.5 
L1 1 2 1.50E-09
R6 2 8 40.000E+06
R1 2 3 1.40
C1 3 8 70.97E-09
R2 3 4 616.27E-03
C2 4 8 141.94E-09
R3 4 5 616.27E-03
C3 5 8 283.87E-09
R4 5 6 616.27E-03
C4 6 8 567.74E-09
R5 6 7 616.27E-03
C5 7 8 1.14E-06
.ENDS
.SUBCKT T419B226M004AH4250 1 8
* Temp@ 25°C, Bias@ 0Vdc , Center Freq@ 300.000kHz
* KEMET Model RLC Tant5RC.JPG / Spice Version 3.9.5 
L1 1 2 1.50E-09
R6 2 8 4.444E+06
R1 2 3 869.46E-03
C1 3 8 709.68E-09
R2 3 4 353.13E-03
C2 4 8 1.42E-06
R3 4 5 353.13E-03
C3 5 8 2.84E-06
R4 5 6 353.13E-03
C4 6 8 5.68E-06
R5 6 7 353.13E-03
C5 7 8 11.35E-06
.ENDS
.SUBCKT T419B335M015AH4250 1 8
* Temp@ 25°C, Bias@ 0Vdc , Center Freq@ 300.000kHz
* KEMET Model RLC Tant5RC.JPG / Spice Version 3.9.5 
L1 1 2 1.50E-09
R6 2 8 30.000E+06
R1 2 3 1.13
C1 3 8 106.45E-09
R2 3 4 481.79E-03
C2 4 8 212.90E-09
R3 4 5 481.79E-03
C3 5 8 425.81E-09
R4 5 6 481.79E-03
C4 6 8 851.61E-09
R5 6 7 481.79E-03
C5 7 8 1.70E-06
.ENDS
.SUBCKT T419B475M010AH4250 1 8
* Temp@ 25°C, Bias@ 0Vdc , Center Freq@ 300.000kHz
* KEMET Model RLC Tant5RC.JPG / Spice Version 3.9.5 
L1 1 2 1.50E-09
R6 2 8 20.000E+06
R1 2 3 979.16E-03
C1 3 8 151.61E-09
R2 3 4 407.98E-03
C2 4 8 303.23E-09
R3 4 5 407.98E-03
C3 5 8 606.45E-09
R4 5 6 407.98E-03
C4 6 8 1.21E-06
R5 6 7 407.98E-03
C5 7 8 2.43E-06
.ENDS
.SUBCKT T419B475M015AH4250 1 8
* Temp@ 25°C, Bias@ 0Vdc , Center Freq@ 300.000kHz
* KEMET Model RLC Tant5RC.JPG / Spice Version 3.9.5 
L1 1 2 1.50E-09
R6 2 8 21.430E+06
R1 2 3 1.10
C1 3 8 151.61E-09
R2 3 4 468.98E-03
C2 4 8 303.23E-09
R3 4 5 468.98E-03
C3 5 8 606.45E-09
R4 5 6 468.98E-03
C4 6 8 1.21E-06
R5 6 7 468.98E-03
C5 7 8 2.43E-06
.ENDS
.SUBCKT T419B685M006AH4250 1 8
* Temp@ 25°C, Bias@ 0Vdc , Center Freq@ 300.000kHz
* KEMET Model RLC Tant5RC.JPG / Spice Version 3.9.5 
L1 1 2 1.50E-09
R6 2 8 12.600E+06
R1 2 3 931.50E-03
C1 3 8 219.35E-09
R2 3 4 384.15E-03
C2 4 8 438.71E-09
R3 4 5 384.15E-03
C3 5 8 877.42E-09
R4 5 6 384.15E-03
C4 6 8 1.75E-06
R5 6 7 384.15E-03
C5 7 8 3.51E-06
.ENDS
.SUBCKT T419B685M010AH4250 1 8
* Temp@ 25°C, Bias@ 0Vdc , Center Freq@ 300.000kHz
* KEMET Model RLC Tant5RC.JPG / Spice Version 3.9.5 
L1 1 2 1.50E-09
R6 2 8 14.290E+06
R1 2 3 956.50E-03
C1 3 8 219.35E-09
R2 3 4 396.65E-03
C2 4 8 438.71E-09
R3 4 5 396.65E-03
C3 5 8 877.42E-09
R4 5 6 396.65E-03
C4 6 8 1.75E-06
R5 6 7 396.65E-03
C5 7 8 3.51E-06
.ENDS
.SUBCKT T419C106M010AH4250 1 8
* Temp@ 25°C, Bias@ 0Vdc , Center Freq@ 300.000kHz
* KEMET Model RLC Tant5RC.JPG / Spice Version 3.9.5 
L1 1 2 2.00E-09
R6 2 8 10.000E+06
R1 2 3 960.14E-03