.SUBCKT A700D106M016ATE045 1 8
* Temp@ 25°C, Bias@ 0Vdc , Center Freq@ 500.000kHz
* KEMET Model RLC Tant5RC.JPG / Spice Version 3.9.5 
L1 1 2 1.85E-09
R6 2 8 10.000E+06
R1 2 3 27.61E-03
C1 3 8 322.58E-09
R2 3 4 12.12E-03
C2 4 8 645.16E-09
R3 4 5 12.12E-03
C3 5 8 1.29E-06
R4 5 6 12.12E-03
C4 6 8 2.58E-06
R5 6 7 12.12E-03
C5 7 8 5.16E-06
.ENDS
.SUBCKT A700D107M006ATE015 1 8
* Temp@ 25°C, Bias@ 0Vdc , Center Freq@ 500.000kHz
* KEMET Model RLC Tant5RC.JPG / Spice Version 3.9.5 
L1 1 2 1.85E-09
R6 2 8 1.000E+06
R1 2 3 10.35E-03
C1 3 8 3.23E-06
R2 3 4 3.54E-03
C2 4 8 6.45E-06
R3 4 5 3.54E-03
C3 5 8 12.90E-06
R4 5 6 3.54E-03
C4 6 8 25.81E-06
R5 6 7 3.54E-03
C5 7 8 51.61E-06
.ENDS
.SUBCKT A700D107M006ATE018 1 8
* Temp@ 25°C, Bias@ 0Vdc , Center Freq@ 500.000kHz
* KEMET Model RLC Tant5RC.JPG / Spice Version 3.9.5 
L1 1 2 1.85E-09
R6 2 8 1.000E+06
R1 2 3 13.51E-03
C1 3 8 3.23E-06
R2 3 4 4.36E-03
C2 4 8 6.45E-06
R3 4 5 4.36E-03
C3 5 8 12.90E-06
R4 5 6 4.36E-03
C4 6 8 25.81E-06
R5 6 7 4.36E-03
C5 7 8 51.61E-06
.ENDS
.SUBCKT A700D127M004ATE015 1 8
* Temp@ 25°C, Bias@ 0Vdc , Center Freq@ 500.000kHz
* KEMET Model RLC Tant5RC.JPG / Spice Version 3.9.5 
L1 1 2 1.85E-09
R6 2 8 833.30E+03
R1 2 3 10.52E-03
C1 3 8 3.87E-06
R2 3 4 3.27E-03
C2 4 8 7.74E-06
R3 4 5 3.27E-03
C3 5 8 15.48E-06
R4 5 6 3.27E-03
C4 6 8 30.97E-06
R5 6 7 3.27E-03
C5 7 8 61.94E-06
.ENDS
.SUBCKT A700D127M004ATE018 1 8
* Temp@ 25°C, Bias@ 0Vdc , Center Freq@ 500.000kHz
* KEMET Model RLC Tant5RC.JPG / Spice Version 3.9.5 
L1 1 2 1.85E-09
R6 2 8 833.30E+03
R1 2 3 13.14E-03
C1 3 8 3.87E-06
R2 3 4 4.22E-03
C2 4 8 7.74E-06
R3 4 5 4.22E-03
C3 5 8 15.48E-06
R4 5 6 4.22E-03
C4 6 8 30.97E-06
R5 6 7 4.22E-03
C5 7 8 61.94E-06
.ENDS
.SUBCKT A700D127M006ATE012 1 8
* Temp@ 25°C, Bias@ 0Vdc , Center Freq@ 500.000kHz
* KEMET Model RLC Tant5RC.JPG / Spice Version 3.9.5 
L1 1 2 1.85E-09
R6 2 8 828.90E+03
R1 2 3 8.85E-03
C1 3 8 3.87E-06
R2 3 4 3.00E-03
C2 4 8 7.74E-06
R3 4 5 3.00E-03
C3 5 8 15.48E-06
R4 5 6 3.00E-03
C4 6 8 30.97E-06
R5 6 7 3.00E-03
C5 7 8 61.94E-06
.ENDS
.SUBCKT A700D127M006ATE015 1 8
* Temp@ 25°C, Bias@ 0Vdc , Center Freq@ 500.000kHz
* KEMET Model RLC Tant5RC.JPG / Spice Version 3.9.5 
L1 1 2 1.85E-09
R6 2 8 828.90E+03
R1 2 3 10.35E-03
C1 3 8 3.87E-06
R2 3 4 3.54E-03
C2 4 8 7.74E-06
R3 4 5 3.54E-03
C3 5 8 15.48E-06
R4 5 6 3.54E-03
C4 6 8 30.97E-06
R5 6 7 3.54E-03
C5 7 8 61.94E-06
.ENDS
.SUBCKT A700D127M006ATE018 1 8
* Temp@ 25°C, Bias@ 0Vdc , Center Freq@ 500.000kHz
* KEMET Model RLC Tant5RC.JPG / Spice Version 3.9.5 
L1 1 2 1.85E-09
R6 2 8 828.90E+03
R1 2 3 12.93E-03
C1 3 8 3.87E-06
R2 3 4 4.22E-03
C2 4 8 7.74E-06
R3 4 5 4.22E-03
C3 5 8 15.48E-06
R4 5 6 4.22E-03
C4 6 8 30.97E-06
R5 6 7 4.22E-03
C5 7 8 61.94E-06
.ENDS
.SUBCKT A700D157M004ATE015 1 8
* Temp@ 25°C, Bias@ 0Vdc , Center Freq@ 500.000kHz
* KEMET Model RLC Tant5RC.JPG / Spice Version 3.9.5 
L1 1 2 1.85E-09
R6 2 8 666.70E+03
R1 2 3 10.51E-03
C1 3 8 4.84E-06
R2 3 4 3.27E-03
C2 4 8 9.68E-06
R3 4 5 3.27E-03
C3 5 8 19.35E-06
R4 5 6 3.27E-03
C4 6 8 38.71E-06
R5 6 7 3.27E-03
C5 7 8 77.42E-06
.ENDS
.SUBCKT A700D157M004ATE018 1 8
* Temp@ 25°C, Bias@ 0Vdc , Center Freq@ 500.000kHz
* KEMET Model RLC Tant5RC.JPG / Spice Version 3.9.5 
L1 1 2 1.85E-09
R6 2 8 666.70E+03
R1 2 3 12.76E-03
C1 3 8 4.84E-06
R2 3 4 4.08E-03
C2 4 8 9.68E-06
R3 4 5 4.08E-03
C3 5 8 19.35E-06
R4 5 6 4.08E-03
C4 6 8 38.71E-06
R5 6 7 4.08E-03
C5 7 8 77.42E-06
.ENDS
.SUBCKT A700D157M006ATE015 1 8
* Temp@ 25°C, Bias@ 0Vdc , Center Freq@ 500.000kHz
* KEMET Model RLC Tant5RC.JPG / Spice Version 3.9.5 
L1 1 2 1.85E-09
R6 2 8 663.20E+03
R1 2 3 10.24E-03
C1 3 8 4.84E-06
R2 3 4 3.54E-03
C2 4 8 9.68E-06
R3 4 5 3.54E-03
C3 5 8 19.35E-06
R4 5 6 3.54E-03
C4 6 8 38.71E-06
R5 6 7 3.54E-03
C5 7 8 77.42E-06
.ENDS
.SUBCKT A700D157M2R5ATE015 1 8
* Temp@ 25°C, Bias@ 0Vdc , Center Freq@ 500.000kHz
* KEMET Model RLC Tant5RC.JPG / Spice Version 3.9.5 
L1 1 2 1.85E-09
R6 2 8 657.90E+03
R1 2 3 10.15E-03
C1 3 8 4.84E-06
R2 3 4 3.09E-03
C2 4 8 9.68E-06
R3 4 5 3.09E-03
C3 5 8 19.35E-06
R4 5 6 3.09E-03
C4 6 8 38.71E-06
R5 6 7 3.09E-03
C5 7 8 77.42E-06
.ENDS
.SUBCKT A700D157M2R5ATE018 1 8
* Temp@ 25°C, Bias@ 0Vdc , Center Freq@ 500.000kHz
* KEMET Model RLC Tant5RC.JPG / Spice Version 3.9.5 
L1 1 2 1.85E-09
R6 2 8 657.90E+03
R1 2 3 11.80E-03
C1 3 8 4.84E-06
R2 3 4 3.60E-03
C2 4 8 9.68E-06
R3 4 5 3.60E-03
C3 5 8 19.35E-06
R4 5 6 3.60E-03
C4 6 8 38.71E-06
R5 6 7 3.60E-03
C5 7 8 77.42E-06
.ENDS
.SUBCKT A700D187M002ATE015 1 8
* Temp@ 25°C, Bias@ 0Vdc , Center Freq@ 500.000kHz
* KEMET Model RLC Tant5RC.JPG / Spice Version 3.9.5 
L1 1 2 1.85E-09
R6 2 8 555.60E+03
R1 2 3 9.66E-03
C1 3 8 5.81E-06
R2 3 4 3.40E-03
C2 4 8 11.61E-06
R3 4 5 3.40E-03
C3 5 8 23.23E-06
R4 5 6 3.40E-03
C4 6 8 46.45E-06
R5 6 7 3.40E-03
C5 7 8 92.90E-06
.ENDS
.SUBCKT A700D187M002ATE018 1 8
* Temp@ 25°C, Bias@ 0Vdc , Center Freq@ 500.000kHz
* KEMET Model RLC Tant5RC.JPG / Spice Version 3.9.5 
L1 1 2 1.85E-09
R6 2 8 555.60E+03
R1 2 3 12.58E-03
C1 3 8 5.81E-06
R2 3 4 4.35E-03
C2 4 8 11.61E-06
R3 4 5 4.35E-03
C3 5 8 23.23E-06
R4 5 6 4.35E-03
C4 6 8 46.45E-06
R5 6 7 4.35E-03
C5 7 8 92.90E-06
.ENDS
.SUBCKT A700D187M004ATE015 1 8
* Temp@ 25°C, Bias@ 0Vdc , Center Freq@ 500.000kHz
* KEMET Model RLC Tant5RC.JPG / Spice Version 3.9.5 
L1 1 2 1.85E-09
R6 2 8 555.60E+03
R1 2 3 10.51E-03
C1 3 8 5.81E-06
R2 3 4 3.27E-03
C2 4 8 11.61E-06
R3 4 5 3.27E-03
C3 5 8 23.23E-06
R4 5 6 3.27E-03
C4 6 8 46.45E-06
R5 6 7 3.27E-03
C5 7 8 92.90E-06
.ENDS
.SUBCKT A700D187M004ATE018 1 8
* Temp@ 25°C, Bias@ 0Vdc , Center Freq@ 500.000kHz
* KEMET Model RLC Tant5RC.JPG / Spice Version 3.9.5 
L1 1 2 1.85E-09
R6 2 8 555.60E+03
R1 2 3 12.45E-03
C1 3 8 5.81E-06
R2 3 4 4.08E-03
C2 4 8 11.61E-06
R3 4 5 4.08E-03
C3 5 8 23.23E-06
R4 5 6 4.08E-03
C4 6 8 46.45E-06
R5 6 7 4.08E-03
C5 7 8 92.90E-06
.ENDS
.SUBCKT A700D187M2R5ATE015 1 8
* Temp@ 25°C, Bias@ 0Vdc , Center Freq@ 500.000kHz
* KEMET Model RLC Tant5RC.JPG / Spice Version 3.9.5 
L1 1 2 1.85E-09
R6 2 8 555.60E+03
R1 2 3 10.15E-03
C1 3 8 5.81E-06
R2 3 4 3.09E-03
C2 4 8 11.61E-06
R3 4 5 3.09E-03
C3 5 8 23.23E-06
R4 5 6 3.09E-03
C4 6 8 46.45E-06
R5 6 7 3.09E-03
C5 7 8 92.90E-06
.ENDS
.SUBCKT A700D187M2R5ATE018 1 8
* Temp@ 25°C, Bias@ 0Vdc , Center Freq@ 500.000kHz
* KEMET Model RLC Tant5RC.JPG / Spice Version 3.9.5 
L1 1 2 1.85E-09
R6 2 8 555.60E+03
R1 2 3 11.49E-03
C1 3 8 5.81E-06
R2 3 4 3.60E-03
C2 4 8 11.61E-06
R3 4 5 3.60E-03
C3 5 8 23.23E-06
R4 5 6 3.60E-03
C4 6 8 46.45E-06
R5 6 7 3.60E-03
C5 7 8 92.90E-06
.ENDS
.SUBCKT A700D226M016ATE018 1 8
* Temp@ 25°C, Bias@ 0Vdc , Center Freq@ 500.000kHz
* KEMET Model RLC Tant5RC.JPG / Spice Version 3.9.5 
L1 1 2 1.85E-09
R6 2 8 4.571E+06
R1 2 3 11.26E-03
C1 3 8 709.68E-09
R2 3 4 3.95E-03
C2 4 8 1.42E-06
R3 4 5 3.95E-03
C3 5 8 2.84E-06
R4 5 6 3.95E-03
C4 6 8 5.68E-06
R5 6 7 3.95E-03
C5 7 8 11.35E-06
.ENDS
.SUBCKT A700D226M016ATE025 1 8
* Temp@ 25°C, Bias@ 0Vdc , Center Freq@ 500.000kHz
* KEMET Model RLC Tant5RC.JPG / Spice Version 3.9.5 
L1 1 2 1.85E-09
R6 2 8 4.571E+06
R1 2 3 11.26E-03
C1 3 8 709.68E-09
R2 3 4 3.95E-03
C2 4 8 1.42E-06
R3 4 5 3.95E-03
C3 5 8 2.84E-06
R4 5 6 3.95E-03
C4 6 8 5.68E-06
R5 6 7 3.95E-03
C5 7 8 11.35E-06
.ENDS
.SUBCKT A700D227M002ATE015 1 8
* Temp@ 25°C, Bias@ 0Vdc , Center Freq@ 500.000kHz
* KEMET Model RLC Tant5RC.JPG / Spice Version 3.9.5 
L1 1 2 1.85E-09
R6 2 8 454.50E+03
R1 2 3 10.07E-03
C1 3 8 7.10E-06
R2 3 4 2.99E-03
C2 4 8 14.19E-06
R3 4 5 2.99E-03
C3 5 8 28.39E-06
R4 5 6 2.99E-03
C4 6 8 56.77E-06
R5 6 7 2.99E-03
C5 7 8 113.55E-06
.ENDS
.SUBCKT A700D227M002ATE018 1 8
* Temp@ 25°C, Bias@ 0Vdc , Center Freq@ 500.000kHz
* KEMET Model RLC Tant5RC.JPG / Spice Version 3.9.5 
L1 1 2 1.85E-09
R6 2 8 454.50E+03
R1 2 3 11.80E-03
C1 3 8 7.10E-06
R2 3 4 3.60E-03
C2 4 8 14.19E-06
R3 4 5 3.60E-03
C3 5 8 28.39E-06
R4 5 6 3.60E-03
C4 6 8 56.77E-06
R5 6 7 3.60E-03
C5 7 8 113.55E-06
.ENDS
.SUBCKT A700D227M004ATE009 1 8
* Temp@ 25°C, Bias@ 0Vdc , Center Freq@ 500.000kHz
* KEMET Model RLC Tant5RC.JPG / Spice Version 3.9.5 
L1 1 2 1.85E-09
R6 2 8 454.50E+03
R1 2 3 6.40E-03
C1 3 8 7.10E-06
R2 3 4 2.18E-03
C2 4 8 14.19E-06
R3 4 5 2.18E-03
C3 5 8 28.39E-06
R4 5 6 2.18E-03
C4 6 8 56.77E-06
R5 6 7 2.18E-03
C5 7 8 113.55E-06
.ENDS
.SUBCKT A700D336M12RATE025 1 8
* Temp@ 25°C, Bias@ 0Vdc , Center Freq@ 500.000kHz
* KEMET Model RLC Tant5RC.JPG / Spice Version 3.9.5 
L1 1 2 1.85E-09
R6 2 8 3.049E+06
R1 2 3 11.26E-03
C1 3 8 1.06E-06
R2 3 4 3.95E-03
C2 4 8 2.13E-06
R3 4 5 3.95E-03
C3 5 8 4.26E-06
R4 5 6 3.95E-03
C4 6 8 8.52E-06
R5 6 7 3.95E-03
C5 7 8 17.03E-06
.ENDS
.SUBCKT A700D337M002ATE007 1 8
* Temp@ 25°C, Bias@ 0Vdc , Center Freq@ 500.000kHz
* KEMET Model RLC Tant5RC.JPG / Spice Version 3.9.5 
L1 1 2 1.85E-09
R6 2 8 303.00E+03
R1 2 3 4.10E-03
C1 3 8 10.65E-06
R2 3 4 1.29E-03
C2 4 8 21.29E-06
R3 4 5 1.29E-03
C3 5 8 42.58E-06
R4 5 6 1.29E-03
C4 6 8 85.16E-06
R5 6 7 1.29E-03
C5 7 8 170.32E-06
.ENDS
.SUBCKT A700D566M008ATE015 1 8
* Temp@ 25°C, Bias@ 0Vdc , Center Freq@ 500.000kHz
* KEMET Model RLC Tant5RC.JPG / Spice Version 3.9.5 
L1 1 2 1.85E-09
R6 2 8 1.778E+06
R1 2 3 10.65E-03
C1 3 8 1.81E-06
R2 3 4 3.54E-03
C2 4 8 3.61E-06
R3 4 5 3.54E-03
C3 5 8 7.23E-06
R4 5 6 3.54E-03
C4 6 8 14.45E-06
R5 6 7 3.54E-03
C5 7 8 28.90E-06
.ENDS
.SUBCKT A700D566M008ATE018 1 8
* Temp@ 25°C, Bias@ 0Vdc , Center Freq@ 500.000kHz
* KEMET Model RLC Tant5RC.JPG / Spice Version 3.9.5 
L1 1 2 1.85E-09
R6 2 8 1.778E+06
R1 2 3 12.80E-03
C1 3 8 1.81E-06
R2 3 4 4.36E-03
C2 4 8 3.61E-06
R3 4 5 4.36E-03
C3 5 8 7.23E-06
R4 5 6 4.36E-03
C4 6 8 14.45E-06
R5 6 7 4.36E-03
C5 7 8 28.90E-06
.ENDS
.SUBCKT A700D566M010ATE015 1 8
* Temp@ 25°C, Bias@ 0Vdc , Center Freq@ 500.000kHz
* KEMET Model RLC Tant5RC.JPG / Spice Version 3.9.5 
L1 1 2 1.85E-09
R6 2 8 1.786E+06
R1 2 3 8.75E-03
C1 3 8 1.81E-06
R2 3 4 3.00E-03
C2 4 8 3.61E-06
R3 4 5 3.00E-03
C3 5 8 7.23E-06
R4 5 6 3.00E-03
C4 6 8 14.45E-06
R5 6 7 3.00E-03
C5 7 8 28.90E-06
.ENDS
.SUBCKT A700D566M010ATE018 1 8
* Temp@ 25°C, Bias@ 0Vdc , Center Freq@ 500.000kHz
* KEMET Model RLC Tant5RC.JPG / Spice Version 3.9.5 
L1 1 2 1.85E-09
R6 2 8 1.786E+06
R1 2 3 11.26E-03
C1 3 8 1.81E-06
R2 3 4 3.95E-03
C2 4 8 3.61E-06
R3 4 5 3.95E-03
C3 5 8 7.23E-06
R4 5 6 3.95E-03
C4 6 8 14.45E-06
R5 6 7 3.95E-03
C5 7 8 28.90E-06
.ENDS
.SUBCKT A700D686M008ATE015 1 8
* Temp@ 25°C, Bias@ 0Vdc , Center Freq@ 500.000kHz
* KEMET Model RLC Tant5RC.JPG / Spice Version 3.9.5 
L1 1 2 1.85E-09
R6 2 8 1.481E+06
R1 2 3 10.38E-03
C1 3 8 2.19E-06
R2 3 4 3.40E-03
C2 4 8 4.39E-06
R3 4 5 3.40E-03
C3 5 8 8.77E-06
R4 5 6 3.40E-03
C4 6 8 17.55E-06
R5 6 7 3.40E-03
C5 7 8 35.10E-06
.ENDS
.SUBCKT A700D686M008ATE018 1 8
* Temp@ 25°C, Bias@ 0Vdc , Center Freq@ 500.000kHz
* KEMET Model RLC Tant5RC.JPG / Spice Version 3.9.5 
L1 1 2 1.85E-09
R6 2 8 1.481E+06
R1 2 3 12.80E-03
C1 3 8 2.19E-06
R2 3 4 4.36E-03
C2 4 8 4.39E-06
R3 4 5 4.36E-03
C3 5 8 8.77E-06
R4 5 6 4.36E-03
C4 6 8 17.55E-06
R5 6 7 4.36E-03
C5 7 8 35.10E-06
.ENDS
.SUBCKT A700D686M010ATE015 1 8
* Temp@ 25°C, Bias@ 0Vdc , Center Freq@ 500.000kHz
* KEMET Model RLC Tant5RC.JPG / Spice Version 3.9.5 
L1 1 2 1.85E-09
R6 2 8 1.471E+06
R1 2 3 8.75E-03
C1 3 8 2.19E-06
R2 3 4 3.00E-03
C2 4 8 4.39E-06
R3 4 5 3.00E-03
C3 5 8 8.77E-06
R4 5 6 3.00E-03
C4 6 8 17.55E-06
R5 6 7 3.00E-03
C5 7 8 35.10E-06
.ENDS
.SUBCKT A700D686M010ATE018 1 8
* Temp@ 25°C, Bias@ 0Vdc , Center Freq@ 500.000kHz
* KEMET Model RLC Tant5RC.JPG / Spice Version 3.9.5 
L1 1 2 1.85E-09
R6 2 8 1.471E+06
R1 2 3 11.26E-03
C1 3 8 2.19E-06
R2 3 4 3.95E-03
C2 4 8 4.39E-06
R3 4 5 3.95E-03
C3 5 8 8.77E-06
R4 5 6 3.95E-03
C4 6 8 17.55E-06
R5 6 7 3.95E-03
C5 7 8 35.10E-06
.ENDS
.SUBCKT A700V106M016ATE045 1 8
* Temp@ 25°C, Bias@ 0Vdc , Center Freq@ 500.000kHz
* KEMET Model RLC Tant5RC.JPG / Spice Version 3.9.5 
L1 1 2 1.80E-09
R6 2 8 10.000E+06
R1 2 3 16.69E-03
C1 3 8 322.58E-09
R2 3 4 5.54E-03
C2 4 8 645.16E-09
R3 4 5 5.54E-03
C3 5 8 1.29E-06
R4 5 6 5.54E-03
C4 6 8 2.58E-06
R5 6 7 5.54E-03
C5 7 8 5.16E-06
.ENDS
.SUBCKT A700V106M12RATE060 1 8
* Temp@ 25°C, Bias@ 0Vdc , Center Freq@ 500.000kHz
* KEMET Model RLC Tant5RC.JPG / Spice Version 3.9.5 
L1 1 2 1.80E-09
R6 2 8 10.420E+06
R1 2 3 33.50E-03
C1 3 8 322.58E-09
R2 3 4 12.93E-03
C2 4 8 645.16E-09
R3 4 5 12.93E-03
C3 5 8 1.29E-06
R4 5 6 12.93E-03
C4 6 8 2.58E-06
R5 6 7 12.93E-03
C5 7 8 5.16E-06
.ENDS
.SUBCKT A700V107M002ATE018 1 8
* Temp@ 25°C, Bias@ 0Vdc , Center Freq@ 500.000kHz
* KEMET Model RLC Tant5RC.JPG / Spice Version 3.9.5 
L1 1 2 1.80E-09
R6 2 8 1.000E+06
R1 2 3 13.40E-03
C1 3 8 3.23E-06
R2 3 4 4.76E-03
C2 4 8 6.45E-06
R3 4 5 4.76E-03
C3 5 8 12.90E-06
R4 5 6 4.76E-03
C4 6 8 25.81E-06
R5 6 7 4.76E-03
C5 7 8 51.61E-06
.ENDS
.SUBCKT A700V107M002ATE025 1 8
* Temp@ 25°C, Bias@ 0Vdc , Center Freq@ 500.000kHz
* KEMET Model RLC Tant5RC.JPG / Spice Version 3.9.5 
L1 1 2 1.80E-09
R6 2 8 1.000E+06
R1 2 3 16.84E-03
C1 3 8 3.23E-06
R2 3 4 6.12E-03
C2 4 8 6.45E-06
R3 4 5 6.12E-03
C3 5 8 12.90E-06
R4 5 6 6.12E-03
C4 6 8 25.81E-06
R5 6 7 6.12E-03
C5 7 8 51.61E-06
.ENDS
.SUBCKT A700V107M002ATE028 1 8
* Temp@ 25°C, Bias@ 0Vdc , Center Freq@ 500.000kHz
* KEMET Model RLC Tant5RC.JPG / Spice Version 3.9.5 
L1 1 2 1.80E-09
R6 2 8 1.000E+06
R1 2 3 19.45E-03
C1 3 8 3.23E-06
R2 3 4 7.07E-03
C2 4 8 6.45E-06
R3 4 5 7.07E-03
C3 5 8 12.90E-06
R4 5 6 7.07E-03
C4 6 8 25.81E-06
R5 6 7 7.07E-03
C5 7 8 51.61E-06
.ENDS
.SUBCKT A700V127M002ATE018 1 8
* Temp@ 25°C, Bias@ 0Vdc , Center Freq@ 500.000kHz
* KEMET Model RLC Tant5RC.JPG / Spice Version 3.9.5 
L1 1 2 1.80E-09
R6 2 8 833.30E+03
R1 2 3 12.07E-03
C1 3 8 3.87E-06
R2 3 4 4.35E-03
C2 4 8 7.74E-06
R3 4 5 4.35E-03
C3 5 8 15.48E-06
R4 5 6 4.35E-03
C4 6 8 30.97E-06
R5 6 7 4.35E-03
C5 7 8 61.94E-06
.ENDS
.SUBCKT A700V127M002ATE025 1 8
* Temp@ 25°C, Bias@ 0Vdc , Center Freq@ 500.000kHz
* KEMET Model RLC Tant5RC.JPG / Spice Version 3.9.5 
L1 1 2 1.80E-09
R6 2 8 833.30E+03
R1 2 3 16.84E-03
C1 3 8 3.87E-06
R2 3 4 6.12E-03
C2 4 8 7.74E-06
R3 4 5 6.12E-03
C3 5 8 15.48E-06
R4 5 6 6.12E-03
C4 6 8 30.97E-06
R5 6 7 6.12E-03
C5 7 8 61.94E-06
.ENDS
.SUBCKT A700V127M002ATE028 1 8
* Temp@ 25°C, Bias@ 0Vdc , Center Freq@ 500.000kHz
* KEMET Model RLC Tant5RC.JPG / Spice Version 3.9.5 
L1 1 2 1.80E-09
R6 2 8 833.30E+03
R1 2 3 17.58E-03
C1 3 8 3.87E-06
R2 3 4 6.39E-03
C2 4 8 7.74E-06
R3 4 5 6.39E-03
C3 5 8 15.48E-06
R4 5 6 6.39E-03
C4 6 8 30.97E-06
R5 6 7 6.39E-03
C5 7 8 61.94E-06
.ENDS
.SUBCKT A700V127M2R5ATE018 1 8
* Temp@ 25°C, Bias@ 0Vdc , Center Freq@ 500.000kHz
* KEMET Model RLC Tant5RC.JPG / Spice Version 3.9.5 
L1 1 2 1.80E-09
R6 2 8 833.30E+03
R1 2 3 14.88E-03
C1 3 8 3.87E-06
R2 3 4 5.15E-03
C2 4 8 7.74E-06
R3 4 5 5.15E-03
C3 5 8 15.48E-06
R4 5 6 5.15E-03
C4 6 8 30.97E-06
R5 6 7 5.15E-03
C5 7 8 61.94E-06
.ENDS
.SUBCKT A700V156M016ATE045 1 8
* Temp@ 25°C, Bias@ 0Vdc , Center Freq@ 500.000kHz
* KEMET Model RLC Tant5RC.JPG / Spice Version 3.9.5 
L1 1 2 1.80E-09
R6 2 8 6.667E+06
R1 2 3 29.39E-03
C1 3 8 483.87E-09
R2 3 4 9.85E-03
C2 4 8 967.74E-09
R3 4 5 9.85E-03
C3 5 8 1.94E-06
R4 5 6 9.85E-03
C4 6 8 3.87E-06
R5 6 7 9.85E-03
C5 7 8 7.74E-06
.ENDS
.SUBCKT A700V156M12RATE040 1 8
* Temp@ 25°C, Bias@ 0Vdc , Center Freq@ 500.000kHz
* KEMET Model RLC Tant5RC.JPG / Spice Version 3.9.5 
L1 1 2 1.80E-09
R6 2 8 6.579E+06
R1 2 3 26.12E-03
C1 3 8 483.87E-09
R2 3 4 9.23E-03
C2 4 8 967.74E-09
R3 4 5 9.23E-03
C3 5 8 1.94E-06
R4 5 6 9.23E-03
C4 6 8 3.87E-06
R5 6 7 9.23E-03
C5 7 8 7.74E-06
.ENDS
.SUBCKT A700V157M002ATE009 1 8
* Temp@ 25°C, Bias@ 0Vdc , Center Freq@ 500.000kHz
* KEMET Model RLC Tant5RC.JPG / Spice Version 3.9.5 
L1 1 2 1.80E-09
R6 2 8 666.70E+03
R1 2 3 6.73E-03
C1 3 8 4.84E-06
R2 3 4 2.45E-03
C2 4 8 9.68E-06
R3 4 5 2.45E-03
C3 5 8 19.35E-06
R4 5 6 2.45E-03
C4 6 8 38.71E-06
R5 6 7 2.45E-03
C5 7 8 77.42E-06
.ENDS
.SUBCKT A700V157M002ATE018 1 8
* Temp@ 25°C, Bias@ 0Vdc , Center Freq@ 500.000kHz
* KEMET Model RLC Tant5RC.JPG / Spice Version 3.9.5 
L1 1 2 1.80E-09
R6 2 8 666.70E+03
R1 2 3 12.79E-03
C1 3 8 4.84E-06
R2 3 4 4.35E-03
C2 4 8 9.68E-06
R3 4 5 4.35E-03
C3 5 8 19.35E-06
R4 5 6 4.35E-03
C4 6 8 38.71E-06
R5 6 7 4.35E-03
C5 7 8 77.42E-06
.ENDS
.SUBCKT A700V157M002ATE025 1 8
* Temp@ 25°C, Bias@ 0Vdc , Center Freq@ 500.000kHz
* KEMET Model RLC Tant5RC.JPG / Spice Version 3.9.5 
L1 1 2 1.80E-09
R6 2 8 666.70E+03
R1 2 3 15.47E-03
C1 3 8 4.84E-06
R2 3 4 5.44E-03
C2 4 8 9.68E-06
R3 4 5 5.44E-03
C3 5 8 19.35E-06
R4 5 6 5.44E-03
C4 6 8 38.71E-06
R5 6 7 5.44E-03
C5 7 8 77.42E-06
.ENDS
.SUBCKT A700V157M002ATE028 1 8
* Temp@ 25°C, Bias@ 0Vdc , Center Freq@ 500.000kHz
* KEMET Model RLC Tant5RC.JPG / Spice Version 3.9.5 
L1 1 2 1.80E-09
R6 2 8 666.70E+03
R1 2 3 17.04E-03
C1 3 8 4.84E-06
R2 3 4 6.12E-03
C2 4 8 9.68E-06
R3 4 5 6.12E-03
C3 5 8 19.35E-06
R4 5 6 6.12E-03
C4 6 8 38.71E-06
R5 6 7 6.12E-03
C5 7 8 77.42E-06
.ENDS
.SUBCKT A700V226M006ATE028 1 8
* Temp@ 25°C, Bias@ 0Vdc , Center Freq@ 500.000kHz
* KEMET Model RLC Tant5RC.JPG / Spice Version 3.9.5 
L1 1 2 1.80E-09
R6 2 8 4.500E+06
R1 2 3 18.41E-03
C1 3 8 709.68E-09
R2 3 4 6.55E-03
C2 4 8 1.42E-06
R3 4 5 6.55E-03
C3 5 8 2.84E-06
R4 5 6 6.55E-03
C4 6 8 5.68E-06
R5 6 7 6.55E-03
C5 7 8 11.35E-06
.ENDS
.SUBCKT A700V226M006ATE045 1 8
* Temp@ 25°C, Bias@ 0Vdc , Center Freq@ 500.000kHz
* KEMET Model RLC Tant5RC.JPG / Spice Version 3.9.5 
L1 1 2 1.80E-09
R6 2 8 4.500E+06
R1 2 3 22.16E-03
C1 3 8 709.68E-09
R2 3 4 7.92E-03
C2 4 8 1.42E-06
R3 4 5 7.92E-03
C3 5 8 2.84E-06
R4 5 6 7.92E-03
C4 6 8 5.68E-06
R5 6 7 7.92E-03
C5 7 8 11.35E-06
.ENDS
.SUBCKT A700V226M008ATE028 1 8
* Temp@ 25°C, Bias@ 0Vdc , Center Freq@ 500.000kHz
* KEMET Model RLC Tant5RC.JPG / Spice Version 3.9.5 
L1 1 2 1.80E-09
R6 2 8 4.444E+06
R1 2 3 20.61E-03
C1 3 8 709.68E-09
R2 3 4 7.50E-03
C2 4 8 1.42E-06
R3 4 5 7.50E-03
C3 5 8 2.84E-06
R4 5 6 7.50E-03
C4 6 8 5.68E-06
R5 6 7 7.50E-03
C5 7 8 11.35E-06
.ENDS
.SUBCKT A700V226M008ATE045 1 8
* Temp@ 25°C, Bias@ 0Vdc , Center Freq@ 500.000kHz
* KEMET Model RLC Tant5RC.JPG / Spice Version 3.9.5 
L1 1 2 1.80E-09
R6 2 8 4.444E+06
R1 2 3 24.35E-03
C1 3 8 709.68E-09
R2 3 4 8.86E-03
C2 4 8 1.42E-06
R3 4 5 8.86E-03
C3 5 8 2.84E-06
R4 5 6 8.86E-03
C4 6 8 5.68E-06
R5 6 7 8.86E-03
C5 7 8 11.35E-06
.ENDS
.SUBCKT A700V226M010ATE028 1 8
* Temp@ 25°C, Bias@ 0Vdc , Center Freq@ 500.000kHz
* KEMET Model RLC Tant5RC.JPG / Spice Version 3.9.5 
L1 1 2 1.80E-09
R6 2 8 4.545E+06
R1 2 3 18.94E-03
C1 3 8 709.68E-09
R2 3 4 6.16E-03
C2 4 8 1.42E-06
R3 4 5 6.16E-03
C3 5 8 2.84E-06
R4 5 6 6.16E-03
C4 6 8 5.68E-06
R5 6 7 6.16E-03
C5 7 8 11.35E-06
.ENDS
.SUBCKT A700V226M012ATE028 1 8
* Temp@ 25°C, Bias@ 0Vdc , Center Freq@ 500.000kHz
* KEMET Model RLC Tant5RC.JPG / Spice Version 3.9.5 
L1 1 2 1.80E-09
R6 2 8 4.615E+06
R1 2 3 18.94E-03
C1 3 8 709.68E-09
R2 3 4 6.16E-03
C2 4 8 1.42E-06
R3 4 5 6.16E-03
C3 5 8 2.84E-06
R4 5 6 6.16E-03
C4 6 8 5.68E-06
R5 6 7 6.16E-03
C5 7 8 11.35E-06
.ENDS
.SUBCKT A700V226M12RATE028 1 8
* Temp@ 25°C, Bias@ 0Vdc , Center Freq@ 500.000kHz
* KEMET Model RLC Tant5RC.JPG / Spice Version 3.9.5 
L1 1 2 1.80E-09
R6 2 8 4.464E+06
R1 2 3 19.72E-03
C1 3 8 709.68E-09
R2 3 4 6.03E-03
C2 4 8 1.42E-06
R3 4 5 6.03E-03
C3 5 8 2.84E-06
R4 5 6 6.03E-03
C4 6 8 5.68E-06
R5 6 7 6.03E-03
C5 7 8 11.35E-06
.ENDS
.SUBCKT A700V226M12RATE030 1 8
* Temp@ 25°C, Bias@ 0Vdc , Center Freq@ 500.000kHz
* KEMET Model RLC Tant5RC.JPG / Spice Version 3.9.5 
L1 1 2 1.80E-09
R6 2 8 4.464E+06
R1 2 3 21.68E-03
C1 3 8 709.68E-09
R2 3 4 7.02E-03
C2 4 8 1.42E-06
R3 4 5 7.02E-03
C3 5 8 2.84E-06
R4 5 6 7.02E-03
C4 6 8 5.68E-06
R5 6 7 7.02E-03
C5 7 8 11.35E-06
.ENDS
.SUBCKT A700V227M002ATE009 1 8
* Temp@ 25°C, Bias@ 0Vdc , Center Freq@ 500.000kHz
* KEMET Model RLC Tant5RC.JPG / Spice Version 3.9.5 
L1 1 2 1.80E-09
R6 2 8 454.50E+03
R1 2 3 6.02E-03
C1 3 8 7.10E-06
R2 3 4 2.04E-03
C2 4 8 14.19E-06
R3 4 5 2.04E-03
C3 5 8 28.39E-06
R4 5 6 2.04E-03
C4 6 8 56.77E-06
R5 6 7 2.04E-03
C5 7 8 113.55E-06
.ENDS
.SUBCKT A700V336M006ATE018 1 8
* Temp@ 25°C, Bias@ 0Vdc , Center Freq@ 500.000kHz
* KEMET Model RLC Tant5RC.JPG / Spice Version 3.9.5 
L1 1 2 1.80E-09
R6 2 8 3.000E+06
R1 2 3 12.65E-03
C1 3 8 1.06E-06
R2 3 4 4.23E-03
C2 4 8 2.13E-06
R3 4 5 4.23E-03
C3 5 8 4.26E-06
R4 5 6 4.23E-03
C4 6 8 8.52E-06
R5 6 7 4.23E-03
C5 7 8 17.03E-06
.ENDS
.SUBCKT A700V336M006ATE025 1 8
* Temp@ 25°C, Bias@ 0Vdc , Center Freq@ 500.000kHz
* KEMET Model RLC Tant5RC.JPG / Spice Version 3.9.5 
L1 1 2 1.80E-09
R6 2 8 3.000E+06
R1 2 3 16.23E-03
C1 3 8 1.06E-06
R2 3 4 5.46E-03
C2 4 8 2.13E-06
R3 4 5 5.46E-03
C3 5 8 4.26E-06
R4 5 6 5.46E-03
C4 6 8 8.52E-06
R5 6 7 5.46E-03
C5 7 8 17.03E-06
.ENDS
.SUBCKT A700V336M006ATE028 1 8
* Temp@ 25°C, Bias@ 0Vdc , Center Freq@ 500.000kHz
* KEMET Model RLC Tant5RC.JPG / Spice Version 3.9.5 
L1 1 2 1.80E-09
R6 2 8 3.000E+06
R1 2 3 19.26E-03
C1 3 8 1.06E-06
R2 3 4 6.83E-03
C2 4 8 2.13E-06
R3 4 5 6.83E-03
C3 5 8 4.26E-06
R4 5 6 6.83E-03
C4 6 8 8.52E-06
R5 6 7 6.83E-03
C5 7 8 17.03E-06
.ENDS
.SUBCKT A700V336M008ATE018 1 8
* Temp@ 25°C, Bias@ 0Vdc , Center Freq@ 500.000kHz
* KEMET Model RLC Tant5RC.JPG / Spice Version 3.9.5 
L1 1 2 1.80E-09
R6 2 8 3.077E+06
R1 2 3 13.45E-03
C1 3 8 1.06E-06
R2 3 4 4.64E-03
C2 4 8 2.13E-06
R3 4 5 4.64E-03
C3 5 8 4.26E-06
R4 5 6 4.64E-03
C4 6 8 8.52E-06
R5 6 7 4.64E-03
C5 7 8 17.03E-06
.ENDS
.SUBCKT A700V336M008ATE025 1 8
* Temp@ 25°C, Bias@ 0Vdc , Center Freq@ 500.000kHz
* KEMET Model RLC Tant5RC.JPG / Spice Version 3.9.5 
L1 1 2 1.80E-09
R6 2 8 3.077E+06
R1 2 3 16.01E-03
C1 3 8 1.06E-06
R2 3 4 5.45E-03
C2 4 8 2.13E-06
R3 4 5 5.45E-03
C3 5 8 4.26E-06
R4 5 6 5.45E-03
C4 6 8 8.52E-06
R5 6 7 5.45E-03
C5 7 8 17.03E-06
.ENDS
.SUBCKT A700V336M008ATE028 1 8
* Temp@ 25°C, Bias@ 0Vdc , Center Freq@ 500.000kHz
* KEMET Model RLC Tant5RC.JPG / Spice Version 3.9.5 
L1 1 2 1.80E-09
R6 2 8 3.077E+06
R1 2 3 18.73E-03
C1 3 8 1.06E-06
R2 3 4 6.82E-03
C2 4 8 2.13E-06
R3 4 5 6.82E-03
C3 5 8 4.26E-06
R4 5 6 6.82E-03
C4 6 8 8.52E-06
R5 6 7 6.82E-03
C5 7 8 17.03E-06
.ENDS
.SUBCKT A700V336M010ATE018 1 8
* Temp@ 25°C, Bias@ 0Vdc , Center Freq@ 500.000kHz
* KEMET Model RLC Tant5RC.JPG / Spice Version 3.9.5 
L1 1 2 1.80E-09
R6 2 8 3.030E+06
R1 2 3 13.05E-03
C1 3 8 1.06E-06
R2 3 4 4.38E-03
C2 4 8 2.13E-06
R3 4 5 4.38E-03
C3 5 8 4.26E-06
R4 5 6 4.38E-03
C4 6 8 8.52E-06
R5 6 7 4.38E-03
C5 7 8 17.03E-06
.ENDS
.SUBCKT A700V336M010ATE025 1 8
* Temp@ 25°C, Bias@ 0Vdc , Center Freq@ 500.000kHz
* KEMET Model RLC Tant5RC.JPG / Spice Version 3.9.5 
L1 1 2 1.80E-09
R6 2 8 3.030E+06
R1 2 3 15.93E-03
C1 3 8 1.06E-06
R2 3 4 5.16E-03
C2 4 8 2.13E-06
R3 4 5 5.16E-03
C3 5 8 4.26E-06
R4 5 6 5.16E-03
C4 6 8 8.52E-06
R5 6 7 5.16E-03
C5 7 8 17.03E-06
.ENDS
.SUBCKT A700V336M010ATE028 1 8
* Temp@ 25°C, Bias@ 0Vdc , Center Freq@ 500.000kHz
* KEMET Model RLC Tant5RC.JPG / Spice Version 3.9.5 
L1 1 2 1.80E-09
R6 2 8 3.030E+06
R1 2 3 19.53E-03
C1 3 8 1.06E-06
R2 3 4 6.45E-03
C2 4 8 2.13E-06
R3 4 5 6.45E-03
C3 5 8 4.26E-06
R4 5 6 6.45E-03
C4 6 8 8.52E-06
R5 6 7 6.45E-03
C5 7 8 17.03E-06
.ENDS
.SUBCKT A700V476M006ATE018 1 8
* Temp@ 25°C, Bias@ 0Vdc , Center Freq@ 500.000kHz
* KEMET Model RLC Tant5RC.JPG / Spice Version 3.9.5 
L1 1 2 1.80E-09
R6 2 8 2.100E+06
R1 2 3 12.48E-03
C1 3 8 1.52E-06
R2 3 4 4.10E-03
C2 4 8 3.03E-06
R3 4 5 4.10E-03
C3 5 8 6.06E-06
R4 5 6 4.10E-03
C4 6 8 12.13E-06
R5 6 7 4.10E-03
C5 7 8 24.26E-06
.ENDS
.SUBCKT A700V476M006ATE025 1 8
* Temp@ 25°C, Bias@ 0Vdc , Center Freq@ 500.000kHz
* KEMET Model RLC Tant5RC.JPG / Spice Version 3.9.5 
L1 1 2 1.80E-09
R6 2 8 2.100E+06
R1 2 3 16.23E-03
C1 3 8 1.52E-06
R2 3 4 5.46E-03
C2 4 8 3.03E-06
R3 4 5 5.46E-03
C3 5 8 6.06E-06
R4 5 6 5.46E-03
C4 6 8 12.13E-06
R5 6 7 5.46E-03
C5 7 8 24.26E-06
.ENDS
.SUBCKT A700V476M006ATE028 1 8
* Temp@ 25°C, Bias@ 0Vdc , Center Freq@ 500.000kHz
* KEMET Model RLC Tant5RC.JPG / Spice Version 3.9.5 
L1 1 2 1.80E-09
R6 2 8 2.100E+06
R1 2 3 19.77E-03
C1 3 8 1.52E-06
R2 3 4 6.83E-03
C2 4 8 3.03E-06
R3 4 5 6.83E-03
C3 5 8 6.06E-06
R4 5 6 6.83E-03
C4 6 8 12.13E-06
R5 6 7 6.83E-03
C5 7 8 24.26E-06
.ENDS
.SUBCKT A700V476M010ATE028 1 8
* Temp@ 25°C, Bias@ 0Vdc , Center Freq@ 500.000kHz
* KEMET Model RLC Tant5RC.JPG / Spice Version 3.9.5 
L1 1 2 1.80E-09
R6 2 8 2.128E+06
R1 2 3 19.53E-03
C1 3 8 1.52E-06
R2 3 4 6.45E-03
C2 4 8 3.03E-06
R3 4 5 6.45E-03
C3 5 8 6.06E-06
R4 5 6 6.45E-03
C4 6 8 12.13E-06
R5 6 7 6.45E-03
C5 7 8 24.26E-06
.ENDS
.SUBCKT A700V566M006ATE018 1 8
* Temp@ 25°C, Bias@ 0Vdc , Center Freq@ 500.000kHz
* KEMET Model RLC Tant5RC.JPG / Spice Version 3.9.5 
L1 1 2 1.80E-09
R6 2 8 1.800E+06
R1 2 3 13.04E-03
C1 3 8 1.81E-06
R2 3 4 4.64E-03
C2 4 8 3.61E-06
R3 4 5 4.64E-03
C3 5 8 7.23E-06
R4 5 6 4.64E-03
C4 6 8 14.45E-06
R5 6 7 4.64E-03
C5 7 8 28.90E-06
.ENDS
.SUBCKT A700V566M006ATE025 1 8
* Temp@ 25°C, Bias@ 0Vdc , Center Freq@ 500.000kHz
* KEMET Model RLC Tant5RC.JPG / Spice Version 3.9.5 
L1 1 2 1.80E-09
R6 2 8 1.800E+06
R1 2 3 17.00E-03
C1 3 8 1.81E-06
R2 3 4 6.00E-03
C2 4 8 3.61E-06
R3 4 5 6.00E-03
C3 5 8 7.23E-06
R4 5 6 6.00E-03
C4 6 8 14.45E-06
R5 6 7 6.00E-03
C5 7 8 28.90E-06
.ENDS
.SUBCKT A700V566M006ATE028 1 8
* Temp@ 25°C, Bias@ 0Vdc , Center Freq@ 500.000kHz
* KEMET Model RLC Tant5RC.JPG / Spice Version 3.9.5 
L1 1 2 1.80E-09
R6 2 8 1.800E+06
R1 2 3 21.29E-03
C1 3 8 1.81E-06
R2 3 4 7.63E-03
C2 4 8 3.61E-06
R3 4 5 7.63E-03
C3 5 8 7.23E-06
R4 5 6 7.63E-03
C4 6 8 14.45E-06
R5 6 7 7.63E-03
C5 7 8 28.90E-06
.ENDS
.SUBCKT A700V685M016ATE070 1 8
* Temp@ 25°C, Bias@ 0Vdc , Center Freq@ 500.000kHz
* KEMET Model RLC Tant5RC.JPG / Spice Version 3.9.5 
L1 1 2 1.80E-09
R6 2 8 14.550E+06
R1 2 3 37.29E-03
C1 3 8 219.35E-09
R2 3 4 14.82E-03
C2 4 8 438.71E-09
R3 4 5 14.82E-03
C3 5 8 877.42E-09
R4 5 6 14.82E-03
C4 6 8 1.75E-06
R5 6 7 14.82E-03
C5 7 8 3.51E-06
.ENDS
.SUBCKT A700V686M006ATE018 1 8
* Temp@ 25°C, Bias@ 0Vdc , Center Freq@ 500.000kHz
* KEMET Model RLC Tant5RC.JPG / Spice Version 3.9.5 
L1 1 2 1.80E-09
R6 2 8 1.465E+06
R1 2 3 12.33E-03
C1 3 8 2.19E-06
R2 3 4 4.23E-03
C2 4 8 4.39E-06
R3 4 5 4.23E-03
C3 5 8 8.77E-06
R4 5 6 4.23E-03
C4 6 8 17.55E-06
R5 6 7 4.23E-03
C5 7 8 35.10E-06
.ENDS
.SUBCKT A700V686M006ATE025 1 8
* Temp@ 25°C, Bias@ 0Vdc , Center Freq@ 500.000kHz
* KEMET Model RLC Tant5RC.JPG / Spice Version 3.9.5 
L1 1 2 1.80E-09
R6 2 8 1.465E+06
R1 2 3 16.52E-03
C1 3 8 2.19E-06
R2 3 4 5.45E-03
C2 4 8 4.39E-06
R3 4 5 5.45E-03
C3 5 8 8.77E-06
R4 5 6 5.45E-03
C4 6 8 17.55E-06
R5 6 7 5.45E-03
C5 7 8 35.10E-06
.ENDS
.SUBCKT A700V686M006ATE028 1 8
* Temp@ 25°C, Bias@ 0Vdc , Center Freq@ 500.000kHz
* KEMET Model RLC Tant5RC.JPG / Spice Version 3.9.5 
L1 1 2 1.80E-09
R6 2 8 1.465E+06
R1 2 3 19.24E-03
C1 3 8 2.19E-06
R2 3 4 6.82E-03
C2 4 8 4.39E-06
R3 4 5 6.82E-03
C3 5 8 8.77E-06
R4 5 6 6.82E-03
C4 6 8 17.55E-06
R5 6 7 6.82E-03
C5 7 8 35.10E-06
.ENDS
.SUBCKT A700V825M016ATE045 1 8
* Temp@ 25°C, Bias@ 0Vdc , Center Freq@ 500.000kHz
* KEMET Model RLC Tant5RC.JPG / Spice Version 3.9.5 
L1 1 2 1.80E-09
R6 2 8 12.310E+06
R1 2 3 26.39E-03
C1 3 8 264.52E-09
R2 3 4 9.88E-03
C2 4 8 529.03E-09
R3 4 5 9.88E-03
C3 5 8 1.06E-06
R4 5 6 9.88E-03
C4 6 8 2.12E-06
R5 6 7 9.88E-03
C5 7 8 4.23E-06
.ENDS
.SUBCKT A700V826M004ATE018 1 8
* Temp@ 25°C, Bias@ 0Vdc , Center Freq@ 500.000kHz
* KEMET Model RLC Tant5RC.JPG / Spice Version 3.9.5 
L1 1 2 1.80E-09
R6 2 8 1.212E+06
R1 2 3 13.48E-03
C1 3 8 2.65E-06
R2 3 4 4.49E-03
C2 4 8 5.29E-06
R3 4 5 4.49E-03
C3 5 8 10.58E-06
R4 5 6 4.49E-03
C4 6 8 21.16E-06
R5 6 7 4.49E-03
C5 7 8 42.32E-06
.ENDS
.SUBCKT A700V826M004ATE025 1 8
* Temp@ 25°C, Bias@ 0Vdc , Center Freq@ 500.000kHz
* KEMET Model RLC Tant5RC.JPG / Spice Version 3.9.5 
L1 1 2 1.80E-09
R6 2 8 1.212E+06
R1 2 3 16.00E-03
C1 3 8 2.65E-06
R2 3 4 5.45E-03
C2 4 8 5.29E-06
R3 4 5 5.45E-03
C3 5 8 10.58E-06
R4 5 6 5.45E-03
C4 6 8 21.16E-06
R5 6 7 5.45E-03
C5 7 8 42.32E-06
.ENDS
.SUBCKT A700V826M004ATE028 1 8
* Temp@ 25°C, Bias@ 0Vdc , Center Freq@ 500.000kHz
* KEMET Model RLC Tant5RC.JPG / Spice Version 3.9.5 
L1 1 2 1.80E-09
R6 2 8 1.212E+06
R1 2 3 17.87E-03
C1 3 8 2.65E-06
R2 3 4 6.13E-03
C2 4 8 5.29E-06
R3 4 5 6.13E-03
C3 5 8 10.58E-06
R4 5 6 6.13E-03
C4 6 8 21.16E-06
R5 6 7 6.13E-03
C5 7 8 42.32E-06
.ENDS
.SUBCKT A700V826M006ATE018 1 8
* Temp@ 25°C, Bias@ 0Vdc , Center Freq@ 500.000kHz
* KEMET Model RLC Tant5RC.JPG / Spice Version 3.9.5 
L1 1 2 1.80E-09
R6 2 8 1.212E+06
R1 2 3 13.08E-03
C1 3 8 2.65E-06
R2 3 4 4.50E-03
C2 4 8 5.29E-06
R3 4 5 4.50E-03
C3 5 8 10.58E-06
R4 5 6 4.50E-03
C4 6 8 21.16E-06
R5 6 7 4.50E-03
C5 7 8 42.32E-06
.ENDS
.SUBCKT A700V826M006ATE025 1 8
* Temp@ 25°C, Bias@ 0Vdc , Center Freq@ 500.000kHz
* KEMET Model RLC Tant5RC.JPG / Spice Version 3.9.5 
L1 1 2 1.80E-09
R6 2 8 1.212E+06
R1 2 3 17.37E-03
C1 3 8 2.65E-06
R2 3 4 6.14E-03
C2 4 8 5.29E-06
R3 4 5 6.14E-03
C3 5 8 10.58E-06
R4 5 6 6.14E-03
C4 6 8 21.16E-06
R5 6 7 6.14E-03
C5 7 8 42.32E-06
.ENDS
.SUBCKT A700V826M006ATE028 1 8
* Temp@ 25°C, Bias@ 0Vdc , Center Freq@ 500.000kHz
* KEMET Model RLC Tant5RC.JPG / Spice Version 3.9.5 
L1 1 2 1.80E-09
R6 2 8 1.212E+06
R1 2 3 19.24E-03
C1 3 8 2.65E-06
R2 3 4 6.82E-03
C2 4 8 5.29E-06
R3 4 5 6.82E-03
C3 5 8 10.58E-06
R4 5 6 6.82E-03
C4 6 8 21.16E-06
R5 6 7 6.82E-03
C5 7 8 42.32E-06
.ENDS
.SUBCKT A700V826M2R5ATE018 1 8
* Temp@ 25°C, Bias@ 0Vdc , Center Freq@ 500.000kHz
* KEMET Model RLC Tant5RC.JPG / Spice Version 3.9.5 
L1 1 2 1.80E-09
R6 2 8 1.250E+06
R1 2 3 12.42E-03
C1 3 8 2.65E-06
R2 3 4 4.12E-03
C2 4 8 5.29E-06
R3 4 5 4.12E-03
C3 5 8 10.58E-06
R4 5 6 4.12E-03
C4 6 8 21.16E-06
R5 6 7 4.12E-03
C5 7 8 42.32E-06
.ENDS
.SUBCKT A700V826M2R5ATE025 1 8
* Temp@ 25°C, Bias@ 0Vdc , Center Freq@ 500.000kHz
* KEMET Model RLC Tant5RC.JPG / Spice Version 3.9.5 
L1 1 2 1.80E-09
R6 2 8 1.250E+06
R1 2 3 15.39E-03
C1 3 8 2.65E-06
R2 3 4 5.15E-03
C2 4 8 5.29E-06
R3 4 5 5.15E-03
C3 5 8 10.58E-06
R4 5 6 5.15E-03
C4 6 8 21.16E-06
R5 6 7 5.15E-03
C5 7 8 42.32E-06
.ENDS
.SUBCKT A700V826M2R5ATE028 1 8
* Temp@ 25°C, Bias@ 0Vdc , Center Freq@ 500.000kHz
* KEMET Model RLC Tant5RC.JPG / Spice Version 3.9.5 
L1 1 2 1.80E-09
R6 2 8 1.250E+06
R1 2 3 17.45E-03
C1 3 8 2.65E-06
R2 3 4 5.92E-03
C2 4 8 5.29E-06
R3 4 5 5.92E-03
C3 5 8 10.58E-06
R4 5 6 5.92E-03
C4 6 8 21.16E-06
R5 6 7 5.92E-03
C5 7 8 42.32E-06
.ENDS
.SUBCKT A700X107M008ATE010 1 8
* Temp@ 25°C, Bias@ 0Vdc , Center Freq@ 500.000kHz
* KEMET Model RLC Tant5RC.JPG / Spice Version 3.9.5 
L1 1 2 1.90E-09
R6 2 8 1.000E+06
R1 2 3 7.35E-03
C1 3 8 3.23E-06
R2 3 4 2.45E-03