****************************************
*  For samples, data sheets, pricing, 
*  sales and technical support,
*  please contact us at:
*
*  Linear Integrated Systems 	
*  4042 Clipper Court
*  Fremont, CA 94538 USA
*  phone: 510-490-9160 
*  fax: 510-353-0261
*  email: sales@linearsystems.com
*  web: www.linearsystems.com
*  
*  Revision B
*  Released on March 27, 2003
*  Craig Greenlaw
*  Linear Integrated Systems
*
*  Revision A
*  released on 01/17/2003
*  by Gregorio La Rosa
*  Silvaco International
*  4701 Patrick Henry Dr.
*  Santa Clara, CA 95054   USA
*  phone: +1 408-654-4337
*  e-mail: gregorio.larosa@silvaco.com
*  web site:  www.silvaco.com
****************************************
*  PSPICE Version 9.2 JFET model library
*  All models are single devices.
*  
*  Device characteristics and models are
*  subject to change without notice.
*  
*  The models contained within are the
*  property of Linear Integrated Systems.
*  March 27, 2003
****************************************
*$
* LINEAR INTEGRATED SYSTEMS
*
* Modeled Device: LS5911 Vp=1.8V 
* Device Geometry: 2003
* Released: March 25, 2003
*
* DATE: Jan 15/03                                                               
* LOT: 2003                  WAF: -                                             
* DIE: 1                     DEV: 2003_1                                        
* Temp= 27                                                                      
* W=    1.0 L=    1.0
* 
.MODEL LS5911_1 NJF (
+ BETA   = 2.797522E-3
+ VTO    = -1.6413349
+ LAMBDA = 0.0120615
+ IS     = 2.711796E-15
+ RD     = 7.2168401
+ RS     = 8.5982161
+ CGD    = 1E-12
+ CGS    = 1E-12
+ PB     = 0.8
+ M      = 0.5
+ FC     = 0.5
+ KF     = 0
+ AF     = 1
+ XTI    = 0
+)
*$
* LINEAR INTEGRATED SYSTEMS
*
* Modeled Device: LS5911 Vp=2.5V
* Device Geometry: 2003
* Released: March 25, 2003
*
* DATE: Jan 15/03                                                               
* LOT: 2003                  WAF: -                                             
* DIE: 3                     DEV: 2003_3                                        
* Temp= 27                                                                      
* W=    1.0 L=    1.0
*
.MODEL LS5911_3 NJF (
+ BETA   = 2.038198E-3
+ VTO    = -2.3712471
+ LAMBDA = 0.0102568
+ IS     = 3.988666E-15
+ RD     = 6.9540316
+ RS     = 8.3749789
+ CGD    = 1E-12
+ CGS    = 1E-12
+ PB     = 0.8
+ M      = 0.5
+ FC     = 0.5
+ KF     = 0
+ AF     = 1
+ XTI    = 0
+)
*$
* LINEAR INTEGRATED SYSTEMS
*
* Modeled Device: LS5911 Vp=4.1V
* Device Geometry: 2003
* Released: March 25, 2003
*
* DATE: Jan 15/03                                                               
* LOT: 2003                  WAF: -                                             
* DIE: 5                     DEV: 2003_5                                        
* Temp= 27                                                                      
* W=    1.0 L=    1.0                                                           
*
.MODEL LS5911_5 NJF (
+ BETA   = 1.493904E-3
+ VTO    = -4.0303898
+ LAMBDA = 0.0192017
+ IS     = 3.387163E-15
+ RD     = 7.3317042
+ RS     = 8.8143658
+ CGD    = 1E-12
+ CGS    = 1E-12
+ PB     = 0.8
+ M      = 0.5
+ FC     = 0.5
+ KF     = 0
+ AF     = 1
+ XTI    = 0
+)
*$
****************************************
*  For samples, data sheets, pricing, 
*  sales and technical support,
*  please contact us at:
*
*  Linear Integrated Systems 	
*  4042 Clipper Court
*  Fremont, CA 94538 USA
*  phone: 510-490-9160 
*  fax: 510-353-0261
*  email: sales@linearsystems.com
*  web: www.linearsystems.com
*  
*  Revision B
*  Released on March 27, 2003
*  Craig Greenlaw
*  Linear Integrated Systems
*
*  Revision A
*  released on 01/17/2003
*  by Gregorio La Rosa
*  Silvaco International
*  4701 Patrick Henry Dr.
*  Santa Clara, CA 95054   USA
*  phone: +1 408-654-4337
*  e-mail: gregorio.larosa@silvaco.com
*  web site:  www.silvaco.com
****************************************
*  PSPICE Version 9.2 JFET model library
*  All models are single devices.
*  
*  Device characteristics and models are
*  subject to change without notice.
*  
*  The models contained within are the
*  property of Linear Integrated Systems.
*  March 27, 2003
****************************************
*$
* LINEAR INTEGRATED SYSTEMS
*
* Modeled Device: LS840 Vp=1.1V
* Device Geometry: 840
* Released: March 27, 2003
*
* DATE: Jan 14/03                                                               
* LOT: 840                   WAF: -                                             
* DIE: 1                     DEV: 840_1                                   
* Temp= 27                                                                      
* W=    1.0 L=    1.0 
*  
.MODEL LS840_1 NJF (
+ BETA   = 1.071053E-3
+ VTO    = -0.9280436
+ LAMBDA = 6.748067E-3
+ IS     = 1.716981E-15
+ RD     = 10.4393412
+ RS     = 12.0949318
+ CGD    = 1E-12
+ CGS    = 1E-12
+ PB     = 0.8
+ M      = 0.5
+ FC     = 0.5
+ KF     = 0
+ AF     = 1
+ XTI    = 0
+)
*$
* LINEAR INTEGRATED SYSTEMS
*
* Modeled Device: LS840 Vp=2.0V
* Device Geometry: 840
* Released: March 27, 2003
*
* DATE: Jan 15/03                                                               
* LOT: 840                   WAF: -                                             
* DIE: 3                     DEV: 840_3                                         
* Temp= 27                                                                      
* W=    1.0 L=    1.0
*
.MODEL LS840_3 NJF (
+ BETA   = 8.789965E-4
+ VTO    = -1.8133466
+ LAMBDA = 8.468685E-3
+ IS     = 2.560781E-15
+ RD     = 10.7808126
+ RS     = 12.5251223
+ CGD    = 1E-12
+ CGS    = 1E-12
+ PB     = 0.8
+ M      = 0.5
+ FC     = 0.5
+ KF     = 0
+ AF     = 1
+ XTI    = 0
+)
*$
* LINEAR INTEGRATED SYSTEMS
*
* Modeled Device: LS840 Vp=2.9V
* Device Geometry: 840
* Released: March 27, 2003
*
* DATE: Jan 15/03                                                               
* LOT: 840                   WAF: -                                             
* DIE: 5                     DEV: 840_5                                         
* Temp= 27                                                                      
* W=    1.0 L=    1.0
*  
.MODEL LS840_5 NJF (
+ BETA   = 8.07995E-4
+ VTO    = -2.6031687
+ LAMBDA = 0.0140798
+ IS     = 2.497086E-15
+ RD     = 10.3501868
+ RS     = 11.9632107
+ CGD    = 1E-12
+ CGS    = 1E-12
+ PB     = 0.8
+ M      = 0.5
+ FC     = 0.5
+ KF     = 0
+ AF     = 1
+ XTI    = 0
+)
*$
****************************************
*  For samples, data sheets, pricing, 
*  sales and technical support,
*  please contact us at:
*
*  Linear Integrated Systems 	
*  4042 Clipper Court
*  Fremont, CA 94538 USA
*  phone: 510-490-9160 
*  fax: 510-353-0261
*  email: sales@linearsystems.com
*  web: www.linearsystems.com
*  
*  Revision B
*  Released on March 27, 2003
*  Craig Greenlaw
*  Linear Integrated Systems
*
*  Revision A
*  released on 01/17/2003
*  by Gregorio La Rosa
*  Silvaco International
*  4701 Patrick Henry Dr.
*  Santa Clara, CA 95054   USA
*  phone: +1 408-654-4337
*  e-mail: gregorio.larosa@silvaco.com
*  web site:  www.silvaco.com
****************************************
*  PSPICE Version 9.2 JFET model library
*  All models are single devices.
*  
*  Device characteristics and models are
*  subject to change without notice.
*  
*  The models contained within are the
*  property of Linear Integrated Systems.
*  March 27, 2003
****************************************
*$
* LINEAR INTEGRATED SYSTEMS
*
* Modeled Device: LS843 Vp=1.2V 
* Device Geometry: JF201
* Released: March 27, 2003
*
* DATE: Jan 15/03                                                               
* LOT: JF201                 WAF: -                                             
* DIE: 1                     DEV: JF201_1                                       
* Temp= 27                                                                      
* W=    1.0 L=    1.0
* 
.MODEL LS843_1 NJF (
+ BETA   = 2.381513E-3
+ VTO    = -0.9901181
+ LAMBDA = 4.131294E-3
+ IS     = 1.191834E-14
+ RD     = 12.7185108
+ RS     = 14.1167733
+ CGD    = 1E-12
+ CGS    = 1E-12
+ PB     = 0.8
+ M      = 0.5
+ FC     = 0.5
+ KF     = 0
+ AF     = 1
+ XTI    = 0
+)
*$
* LINEAR INTEGRATED SYSTEMS
*
* Modeled Device: LS843 Vp=2.5V
* Device Geometry: JF201
* Released: March 27, 2003
*
* DATE: Jan 15/03                                                               
* LOT: JF201                 WAF: -                                             
* DIE: 3                     DEV: JF201_3                                       
* Temp= 27                                                                      
* W=    1.0 L=    1.0
* 
.MODEL LS843_3 NJF (
+ BETA   = 1.605032E-3
+ VTO    = -2.3415746
+ LAMBDA = 7.151837E-3
+ IS     = 1.647462E-15
+ RD     = 10.8743787
+ RS     = 12.5231483
+ CGD    = 1E-12
+ CGS    = 1E-12
+ PB     = 0.8
+ M      = 0.5
+ FC     = 0.5
+ KF     = 0
+ AF     = 1
+ XTI    = 0
+)
*$
* LINEAR INTEGRATED SYSTEMS
*
* Modeled Device: LS843 Vp=3.4V
* Device Geometry: JF201
* Released: March 27, 2003
*
* DATE: Jan 15/03                                                               
* LOT: JF201                 WAF: -                                             
* DIE: 5                     DEV: JF201_5                                       
* Temp= 27                                                                      
* W=    1.0 L=    1.0
* 
.MODEL LS843_5 NJF (
+ BETA   = 1.469459E-3
+ VTO    = -3.2465415
+ LAMBDA = 9.118295E-3
+ IS     = 1.773497E-15
+ RD     = 10.5679799
+ RS     = 12.3960601
+ CGD    = 1E-12
+ CGS    = 1E-12
+ PB     = 0.8
+ M      = 0.5
+ FC     = 0.5
+ KF     = 0
+ AF     = 1
+ XTI    = 0
+)
*$
****************************************
*  For samples, data sheets, pricing, 
*  sales and technical support,
*  please contact us at:
*
*  Linear Integrated Systems 	
*  4042 Clipper Court
*  Fremont, CA 94538 USA
*  phone: 510-490-9160 
*  fax: 510-353-0261
*  email: sales@linearsystems.com
*  web: www.linearsystems.com
*  
*  Revision B
*  Released on March 27, 2003
*  Craig Greenlaw
*  Linear Integrated Systems
*
*  Revision A
*  released on 01/17/2003
*  by Gregorio La Rosa
*  Silvaco International
*  4701 Patrick Henry Dr.
*  Santa Clara, CA 95054   USA
*  phone: +1 408-654-4337
*  e-mail: gregorio.larosa@silvaco.com
*  web site:  www.silvaco.com
****************************************
*  PSPICE Version 9.2 JFET model library
*  All models are single devices.
*  
*  Device characteristics and models are
*  subject to change without notice.
*  
*  The models contained within are the
*  property of Linear Integrated Systems.
*  March 27, 2003
****************************************
*$
* LINEAR INTEGRATED SYSTEMS
*
* Modeled Device: LS830 Vp=0.79V
* Device Geometry: JF202
* Released: March 27, 2003
*                                                                      
* DATE: Jan 15/03                                                               
* LOT: JF202                 WAF: -                                             
* DIE: 1                     DEV: JF202_1                                    
* Temp= 27                                                                      
* W=    1.0 L=    1.0
*
.MODEL LS830_1 NJF (
+ BETA   = 2.294987E-4
+ VTO    = -0.6408293
+ LAMBDA = 3.839961E-3
+ IS     = 1.79404E-16
+ RD     = 24.7453319
+ RS     = 31.8719039
+ CGD    = 1E-12
+ CGS    = 1E-12
+ PB     = 0.8
+ M      = 0.5
+ FC     = 0.5
+ KF     = 0
+ AF     = 1
+ XTI    = 0
+)
*$
* LINEAR INTEGRATED SYSTEMS
*
* Modeled Device: LS830 Vp=1.5V
* Device Geometry: JF202
* Released: March 27, 2003
*
* DATE: Jan 15/03                                                               
* LOT: JF202                 WAF: -                                             
* DIE: 3                     DEV: JF202_3                                       
* Temp= 27                                                                      
* W=    1.0 L=    1.0
*  
.MODEL LS830_3 NJF (
+ BETA   = 1.512079E-4
+ VTO    = -1.4211748
+ LAMBDA = 4.167531E-3
+ IS     = 1.243658E-15
+ RD     = 16.7331739
+ RS     = 20.9372354
+ CGD    = 1E-12
+ CGS    = 1E-12
+ PB     = 0.8
+ M      = 0.5
+ FC     = 0.5
+ KF     = 0
+ AF     = 1
+ XTI    = 0
+)
*$
* LINEAR INTEGRATED SYSTEMS
*
* Modeled Device: LS830 Vp=2.0V
* Device Geometry: JF202
* Released: March 27, 2003
*
* DATE: Jan 15/03                                                               
* LOT: JF202                 WAF: -                                             
* DIE: 5                     DEV: JF202_5                                       
* Temp= 27                                                                      
* W=    1.0 L=    1.0
*
.MODEL LS830_5 NJF (
+ BETA   = 1.044695E-4
+ VTO    = -1.9999225
+ LAMBDA = 4.141585E-3
+ IS     = 1.135356E-15
+ RD     = 16.0486935
+ RS     = 20.0836081
+ CGD    = 1E-12
+ CGS    = 1E-12
+ PB     = 0.8
+ M      = 0.5
+ FC     = 0.5
+ KF     = 0
+ AF     = 1
+ XTI    = 0
+)
*$
****************************************************************************
*****  LINEAR INTEGRATED SYSTEMS DMOS MODELS REV A. OCTOBER 10, 2002.  *****
*****                                                                  *****
*****  For samples, data sheets, pricing, sales and technical support,
*****  please contact us at:
*****
*****  Linear Integrated Systems 	
*****  4042 Clipper Court
*****  Fremont, CA 94538 USA
*****  phone: 510-490-9160 
*****  fax: 510-353-0261
*****  email: sales@linearsystems.com
*****  web: www.linearsystems.com
*****
*****                                                                  *****
*****  MODEL NAMES:                                                    *****
*****            SD210DE: DMOS device model W=889um L=0.5um T=27C.     ***** 
*****            BIAS RANGE: VDSmax=20V VGSmax=2.5V VBSmax=-2V         *****
*****                                                                  *****
*****            SD214DE: DMOS device model W=889um L=0.5um T=27C.     ***** 
*****            BIAS RANGE: VDSmax=12V VGSmax=2.5V VBSmax=-2V         *****
*****                                                                  *****
*****            SD5400: DMOS device model W=889um L=0.5um T=27C.      ***** 
*****            BIAS RANGE: VDSmax=20V VGSmax=3.5V VBSmax=-2V         *****
*****                                                                  *****
*****            SD5400CY: DMOS device model W=889um L=0.5um T=27C.    ***** 
*****            BIAS RANGE: VDSmax=12V VGSmax=3.5V VBSmax=-2V         *****
*****                                                                  *****
*****            SST211: DMOS device model W=889um L=0.5um T=27C.      ***** 
*****            BIAS RANGE: VDSmax=30V VGSmax=2.5V VBSmax=-2V         *****
*****                                                                  *****
*****            SST213: DMOS device model W=889um L=0.5um T=27C.      ***** 
*****            BIAS RANGE: VDSmax=10V VGSmax=3.5V VBSmax=-2V         *****
*****                                                                  *****
*****            SST215: DMOS device model W=889um L=0.5um T=27C.      ***** 
*****            BIAS RANGE: VDSmax=20V VGSmax=3.5V VBSmax=-2V         *****
*****                                                                  *****
*****                                                                  *****
***** GEOMETRY RANGE: All devices have the same W=889um and L=0.5um.   *****
*****                                                                  *****
***** !!!!!!!!!!!!!!!!!!!!!!!!!!!!!!!!!!!!!!!!!!!!!!!!!!!!!!!!!!!!!!!  *****
***** CONTENTS: PSPICE COMPATIBLE BSIM3v3.1 CMOS MODELS                *****
***** PREPARED BY: M. TANER, /SILVACO INTERNATIONAL                    *****
****************************************************************************
*
* W=  889.0um L=    0.5um                                                           
.MODEL SD210DE NMOS (W=  889.0um L=    0.5um       LEVEL   = 7                  
+VERSION = 3.1            TNOM    = 27             TOX     = 1E-7               
+XJ      = 1.5E-7         NCH     = 1.7E17         VTH0    = 0.8385079          
+K1      = 2.2042635      K2      = -2.32613E-4    K3      = 80                 
+K3B     = 0              W0      = 2.5E-6         NLX     = 1.74E-7            
+DVT0W   = 0              DVT1W   = 0              DVT2W   = -0.032             
+DVT0    = 2.2            DVT1    = 0.53           DVT2    = -0.032             
+U0      = 387.0815953    UA      = 8.9561E-10     UB      = 9.794738E-20       
+UC      = -1E-10         VSAT    = 8.5E4          A0      = 0.89               
+AGS     = 0              B0      = 0              B1      = 0                  
+KETA    = -0.047         A1      = 0              A2      = 1                  
+RDSW    = 3.5E3          PRWG    = 0              PRWB    = 0                  
+WR      = 1              WINT    = 0              LINT    = 0                  
+XL      = 0              XW      = 0              DWG     = 0                  
+DWB     = 0              VOFF    = -0.1408106     NFACTOR = 0.1035439          
+CIT     = 0              CDSC    = 1.9E-4         CDSCD   = 0                  
+CDSCB   = 0              ETA0    = 1E-5           ETAB    = -0.07              
+DSUB    = 0.56           PCLM    = 0.134          PDIBLC1 = 5.934E-5           
+PDIBLC2 = 1.013829E-4    PDIBLCB = 0              DROUT   = 1.309213           
+PSCBE1  = 6.014E8        PSCBE2  = 5E-6           PVAG    = 0.5405676          
+DELTA   = 0.2156691      MOBMOD  = 1              PRT     = 0                  
+UTE     = -1.5           KT1     = 0              KT1L    = 0                  
+KT2     = 0              UA1     = 4.31E-9        UB1     = -7.61E-18          
+UC1     = -5.6E-11       AT      = 3.3E4          PHI     = 0.7582363          
+NQSMOD  = 0              WL      = 0              WLN     = 1                  
+WW      = 0              WWN     = 1              WWL     = 0                  
+LL      = 0              LLN     = 1              LW      = 0                  
+LWN     = 1              LWL     = 0              CAPMOD  = 2                  
+XPART   = 0              CGDO    = 2.229944E-9    CGSO    = 3.689494E-9        
+DLC     = 0              DWC     = 0               )                           
*                                                                               
* W=  889.0um L=    0.5um                                                           
.MODEL SD214DE NMOS (W=  889.0um L=    0.5um       LEVEL   = 7                  
+VERSION = 3.1            TNOM    = 27             TOX     = 1E-7               
+XJ      = 1.5E-7         NCH     = 1.7E17         VTH0    = 0.8927416          
+K1      = 2.273242       K2      = -3.738831E-5   K3      = 80                 
+K3B     = 0              W0      = 2.5E-6         NLX     = 1.74E-7            
+DVT0W   = 0              DVT1W   = 0              DVT2W   = -0.032             
+DVT0    = 2.2            DVT1    = 0.53           DVT2    = -0.032             
+U0      = 448.8214468    UA      = 8.37645E-10    UB      = 8.292732E-20       
+UC      = -1E-10         VSAT    = 8.5E4          A0      = 0.91               
+AGS     = 0              B0      = 0              B1      = 0                  
+KETA    = -0.047         A1      = 0              A2      = 1                  
+RDSW    = 3.5E3          PRWG    = 0              PRWB    = 0                  
+WR      = 1              WINT    = 0              LINT    = 0                  
+XL      = 0              XW      = 0              DWG     = 0                  
+DWB     = 0              VOFF    = -0.1149302     NFACTOR = 0.1106101          
+CIT     = 0              CDSC    = 1.5E-4         CDSCD   = 0                  
+CDSCB   = 0              ETA0    = 1E-5           ETAB    = -0.07              
+DSUB    = 0.56           PCLM    = 0.134          PDIBLC1 = 5.934E-5           
+PDIBLC2 = 1.013829E-5    PDIBLCB = 0              DROUT   = 1.309213           
+PSCBE1  = 5.04E8         PSCBE2  = 5E-6           PVAG    = 0.1405676          
+DELTA   = 0.1615669      MOBMOD  = 1              PRT     = 0                  
+UTE     = -1.5           KT1     = 0              KT1L    = 0                  
+KT2     = 0              UA1     = 4.31E-9        UB1     = -7.61E-18          
+UC1     = -5.6E-11       AT      = 3.3E4          PHI     = 0.7582363          
+NQSMOD  = 0              WL      = 0              WLN     = 1                  
+WW      = 0              WWN     = 1              WWL     = 0                  
+LL      = 0              LLN     = 1              LW      = 0                  
+LWN     = 1              LWL     = 0              CAPMOD  = 2                  
+XPART   = 0              CGDO    = 4.1282E-9      CGSO    = 3.83036E-9         
+DLC     = 0              DWC     = 0               )                           
*                                                                               
* W=  889.0um L=    0.5um                                                           
.MODEL SD5400 NMOS (W=  889.0um L=    0.5um        LEVEL   = 7                  
+VERSION = 3.1            TNOM    = 27             TOX     = 1E-7               
+XJ      = 1.5E-7         NCH     = 1.7E17         VTH0    = 1.2267984          
+K1      = 2.4398213      K2      = -6.082649E-3   K3      = 80                 
+K3B     = 0              W0      = 2.5E-6         NLX     = 1.74E-7            
+DVT0W   = 0              DVT1W   = 0              DVT2W   = -0.032             
+DVT0    = 2.2            DVT1    = 0.53           DVT2    = -0.032             
+U0      = 592.8835244    UA      = 9.9665E-9      UB      = 1.120368E-18       
+UC      = 2.639614E-9    VSAT    = 8.8E4          A0      = 0.91               
+AGS     = 0              B0      = 0              B1      = 0                  
+KETA    = -0.047         A1      = 0              A2      = 1                  
+RDSW    = 6.5E3          PRWG    = 0              PRWB    = 0                  
+WR      = 1              WINT    = 0              LINT    = 0                  
+XL      = 0              XW      = 0              DWG     = 0                  
+DWB     = 0              VOFF    = -0.0860159     NFACTOR = 0.252821           
+CIT     = 0              CDSC    = 1.5E-4         CDSCD   = 0                  
+CDSCB   = 0              ETA0    = 1E-7           ETAB    = -0.07              
+DSUB    = 0.56           PCLM    = 0.134          PDIBLC1 = 5.934E-5           
+PDIBLC2 = 1.013829E-5    PDIBLCB = 0              DROUT   = 0.176              
+PSCBE1  = 6.7357E8       PSCBE2  = 5E-6           PVAG    = 0.1405676          
+DELTA   = 0.1615669      MOBMOD  = 1              PRT     = 0                  
+UTE     = -1.5           KT1     = 0              KT1L    = 0                  
+KT2     = 0              UA1     = 4.31E-9        UB1     = -7.61E-18          
+UC1     = -5.6E-11       AT      = 3.3E4          PHI     = 0.7582363          
+NQSMOD  = 0              WL      = 0              WLN     = 1                  
+WW      = 0              WWN     = 1              WWL     = 0                  
+LL      = 0              LLN     = 1              LW      = 0                  
+LWN     = 1              LWL     = 0              CAPMOD  = 2                  
+XPART   = 0              CGDO    = 2.028043E-9    CGSO    = 3.513386E-9        
+DLC     = 0              DWC     = 0               )                           
*                                                                               
* W=  889.0um L=    0.5um                                                           
.MODEL SD5400CY NMOS (W=  889.0um L=    0.5um      LEVEL   = 7                  
+VERSION = 3.1            TNOM    = 27             TOX     = 1E-7               
+XJ      = 1.5E-7         NCH     = 1.7E17         VTH0    = 1.2233643          
+K1      = 2.4775913      K2      = -0.0339811     K3      = 80                 
+K3B     = 0              W0      = 2.5E-6         NLX     = 1.74E-7            
+DVT0W   = 0              DVT1W   = 0              DVT2W   = -0.032             
+DVT0    = 2.2            DVT1    = 0.53           DVT2    = -0.032             
+U0      = 542.6517258    UA      = 1E-8           UB      = 2E-18              
+UC      = 1.814396E-9    VSAT    = 8.8E4          A0      = 0.91               
+AGS     = 0              B0      = 0              B1      = 0                  
+KETA    = -0.047         A1      = 0              A2      = 1                  
+RDSW    = 6.5E3          PRWG    = 0              PRWB    = 0                  
+WR      = 1              WINT    = 0              LINT    = 0                  
+XL      = 0              XW      = 0              DWG     = 0                  
+DWB     = 0              VOFF    = -0.084672      NFACTOR = 0.2580035          
+CIT     = 0              CDSC    = 1.5E-4         CDSCD   = 0                  
+CDSCB   = 0              ETA0    = 1E-7           ETAB    = -0.07              
+DSUB    = 0.56           PCLM    = 0.134          PDIBLC1 = 5.934E-5           
+PDIBLC2 = 1.013829E-5    PDIBLCB = 0              DROUT   = 0.0106             
+PSCBE1  = 6.0357E8       PSCBE2  = 5E-6           PVAG    = 0.1405676          
+DELTA   = 0.159          MOBMOD  = 1              PRT     = 0                  
+UTE     = -1.5           KT1     = 0              KT1L    = 0                  
+KT2     = 0              UA1     = 4.31E-9        UB1     = -7.61E-18          
+UC1     = -5.6E-11       AT      = 3.3E4          PHI     = 0.7582363          
+NQSMOD  = 0              WL      = 0              WLN     = 1                  
+WW      = 0              WWN     = 1              WWL     = 0                  
+LL      = 0              LLN     = 1              LW      = 0                  
+LWN     = 1              LWL     = 0              CAPMOD  = 2                  
+XPART   = 0              CGDO    = 1.518931E-9    CGSO    = 3.115343E-9        
+DLC     = 0              DWC     = 0               )                           
*
* W=  889.0um L=    0.5um                                                           
.MODEL SST211 NMOS (W=  889.0um L=    0.5um        LEVEL   = 7                  
+VERSION = 3.1            TNOM    = 27             TOX     = 1E-7               
+XJ      = 1.5E-7         NCH     = 1.7E17         VTH0    = 1.0941063          
+K1      = 2.4541877      K2      = -0.05          K3      = 80                 
+K3B     = 0              W0      = 2.5E-6         NLX     = 1.74E-7            
+DVT0W   = 0              DVT1W   = 0              DVT2W   = -0.032             
+DVT0    = 2.2            DVT1    = 0.53           DVT2    = -0.032             
+U0      = 537.6815365    UA      = 1E-8           UB      = 1.998E-18          
+UC      = 1.31205E-9     VSAT    = 8.8E4          A0      = 0.93               
+AGS     = 0              B0      = 0              B1      = 0                  
+KETA    = -0.047         A1      = 0              A2      = 1                  
+RDSW    = 4E3            PRWG    = 0              PRWB    = 0                  
+WR      = 1              WINT    = 0              LINT    = 0                  
+XL      = 0              XW      = 0              DWG     = 0                  
+DWB     = 0              VOFF    = -0.0593033     NFACTOR = 0.2282159          
+CIT     = 0              CDSC    = 1.5E-4         CDSCD   = 0                  
+CDSCB   = 0              ETA0    = 1E-7           ETAB    = -0.07              
+DSUB    = 0.56           PCLM    = 0.134          PDIBLC1 = 9.934E-5           
+PDIBLC2 = 1.013829E-3    PDIBLCB = 0              DROUT   = 0.01               
+PSCBE1  = 8.456E8        PSCBE2  = 3E-6           PVAG    = 0.1405676          
+DELTA   = 0.13           MOBMOD  = 1              PRT     = 0                  
+UTE     = -1.5           KT1     = 0              KT1L    = 0                  
+KT2     = 0              UA1     = 4.31E-9        UB1     = -7.61E-18          
+UC1     = -5.6E-11       AT      = 3.3E4          PHI     = 0.7582363          
+NQSMOD  = 0              WL      = 0              WLN     = 1                  
+WW      = 0              WWN     = 1              WWL     = 0                  
+LL      = 0              LLN     = 1              LW      = 0                  
+LWN     = 1              LWL     = 0              CAPMOD  = 2                  
+XPART   = 0              CGDO    = 1.91225E-9     CGSO    = 3.146805E-9        
+DLC     = 0              DWC     = 0               )                           
*                                                                               
* W=  889.0um L=    0.5um                                                           
.MODEL SST213 NMOS (W=  889.0um L=    0.5um        LEVEL   = 7                  
+VERSION = 3.1            TNOM    = 27             TOX     = 1E-7               
+XJ      = 1.5E-7         NCH     = 1.7E17         VTH0    = 1.597067           
+K1      = 2.9972732      K2      = -0.05          K3      = 80                 
+K3B     = 0              W0      = 2.5E-6         NLX     = 1.74E-7            
+DVT0W   = 0              DVT1W   = 0              DVT2W   = -0.032             
+DVT0    = 2.2            DVT1    = 0.53           DVT2    = -0.032             
+U0      = 400.0382405    UA      = 7.155215E-9    UB      = 2E-18              
+UC      = -9.98582E-11   VSAT    = 8E4            A0      = 0.9                
+AGS     = 0              B0      = 0              B1      = 0                  
+KETA    = -0.047         A1      = 0              A2      = 1                  
+RDSW    = 4E3            PRWG    = 0              PRWB    = 0                  