**********
* Littelfuse, LP
* SIDACtor SPICE Models
* Pxxx0EA, TO-92, 30V to 350V, "A" Surge Rating
*
* v1: Initial models, T. Chenoski, 10/01/2004
* v2: Add P0300EA, Jifeng Z., 08/08/2010
*
**********
**********
.SUBCKT P0300EA   1   2
*     TERMINALS:  MT2 MT1
QN1 5 4 2  NOUT OFF
QN2 8 6 7  NOUT OFF
QP1 6 8 2  POUT OFF
QP2 4 5 7  POUT OFF
DF  4 3    DZ OFF
DR  6 3    DZ OFF
RT2 1 7    0.05
RH  7 6    3
RH2 4 2    3
.MODEL DZ   D   (IS=321F RS=10 N=1.5 IBV=10N BV=30)
.MODEL POUT PNP (IS=321F BF=10 CJE=50P TF=0.1U)
.MODEL NOUT NPN (IS=321F BF=20 CJE=50P CJC=50P TF=0.1U)
.ENDS
**********
.SUBCKT P0640EA   1   2
*     TERMINALS: MT2 MT1
QN1 5 4 2  NOUT OFF
QN2 8 6 7  NOUT OFF
QP1 6 8 2  POUT OFF
QP2 4 5 7  POUT OFF
DF  4 3    DZ OFF
DR  6 3    DZ OFF
RT2 1 7    0.05
RH  7 6    3
RH2 4 2    3
.MODEL DZ   D   (IS=321F RS=10 N=1.5 IBV=10N BV=64)
.MODEL POUT PNP (IS=321F BF=10 CJE=50P TF=0.1U)
.MODEL NOUT NPN (IS=321F BF=20 CJE=50P CJC=50P TF=0.1U)
.ENDS
**********
.SUBCKT P0720EA   1   2
*     TERMINALS: MT2 MT1
QN1 5 4 2  NOUT OFF
QN2 8 6 7  NOUT OFF
QP1 6 8 2  POUT OFF
QP2 4 5 7  POUT OFF
DF  4 3    DZ OFF
DR  6 3    DZ OFF
RT2 1 7    0.05
RH  7 6    3
RH2 4 2    3
.MODEL DZ   D   (IS=321F RS=10 N=1.5 IBV=10N BV=72)
.MODEL POUT PNP (IS=321F BF=10 CJE=50P TF=0.1U)
.MODEL NOUT NPN (IS=321F BF=20 CJE=50P CJC=50P TF=0.1U)
.ENDS
**********
.SUBCKT P0800EA   1   2
*     TERMINALS: MT2 MT1
QN1 5 4 2  NOUT OFF
QN2 8 6 7  NOUT OFF
QP1 6 8 2  POUT OFF
QP2 4 5 7  POUT OFF
DF  4 3    DZ OFF
DR  6 3    DZ OFF
RT2 1 7    0.05
RH  7 6    3
RH2 4 2    3
.MODEL DZ   D   (IS=321F RS=10 N=1.5 IBV=10N BV=80)
.MODEL POUT PNP (IS=321F BF=10 CJE=50P TF=0.1U)
.MODEL NOUT NPN (IS=321F BF=20 CJE=50P CJC=50P TF=0.1U)
.ENDS
**********
.SUBCKT P0900EA   1   2
*     TERMINALS: MT2 MT1
QN1 5 4 2  NOUT OFF
QN2 8 6 7  NOUT OFF
QP1 6 8 2  POUT OFF
QP2 4 5 7  POUT OFF
DF  4 3    DZ OFF
DR  6 3    DZ OFF
RT2 1 7    0.05
RH  7 6    3
RH2 4 2    3
.MODEL DZ   D   (IS=321F RS=10 N=1.5 IBV=10N BV=90)
.MODEL POUT PNP (IS=321F BF=10 CJE=50P TF=0.1U)
.MODEL NOUT NPN (IS=321F BF=20 CJE=50P CJC=50P TF=0.1U)
.ENDS
**********
.SUBCKT P1100EA   1   2
*     TERMINALS: MT2 MT1
QN1 5 4 2  NOUT OFF
QN2 8 6 7  NOUT OFF
QP1 6 8 2  POUT OFF
QP2 4 5 7  POUT OFF
DF  4 3    DZ OFF
DR  6 3    DZ OFF
RT2 1 7    0.05
RH  7 6    3
RH2 4 2    3
.MODEL DZ   D   (IS=321F RS=10 N=1.5 IBV=10N BV=110)
.MODEL POUT PNP (IS=321F BF=10 CJE=50P TF=0.1U)
.MODEL NOUT NPN (IS=321F BF=20 CJE=50P CJC=50P TF=0.1U)
.ENDS
**********
.SUBCKT P1300EA   1   2
*     TERMINALS: MT2 MT1
QN1 5 4 2  NOUT OFF
QN2 8 6 7  NOUT OFF
QP1 6 8 2  POUT OFF
QP2 4 5 7  POUT OFF
DF  4 3    DZ OFF
DR  6 3    DZ OFF
RT2 1 7    0.05
RH  7 6    3
RH2 4 2    3
.MODEL DZ   D   (IS=321F RS=10 N=1.5 IBV=10N BV=130)
.MODEL POUT PNP (IS=321F BF=10 CJE=50P TF=0.1U)
.MODEL NOUT NPN (IS=321F BF=20 CJE=50P CJC=50P TF=0.1U)
.ENDS
**********
.SUBCKT P1500EA   1   2
*     TERMINALS: MT2 MT1
QN1 5 4 2  NOUT OFF
QN2 8 6 7  NOUT OFF
QP1 6 8 2  POUT OFF
QP2 4 5 7  POUT OFF
DF  4 3    DZ OFF
DR  6 3    DZ OFF
RT2 1 7    0.05
RH  7 6    3
RH2 4 2    3
.MODEL DZ   D   (IS=321F RS=10 N=1.5 IBV=10N BV=150)
.MODEL POUT PNP (IS=321F BF=10 CJE=50P TF=0.1U)
.MODEL NOUT NPN (IS=321F BF=20 CJE=50P CJC=50P TF=0.1U)
.ENDS
**********
.SUBCKT P1800EA   1   2
*     TERMINALS: MT2 MT1
QN1 5 4 2  NOUT OFF
QN2 8 6 7  NOUT OFF
QP1 6 8 2  POUT OFF
QP2 4 5 7  POUT OFF
DF  4 3    DZ OFF
DR  6 3    DZ OFF
RT2 1 7    0.05
RH  7 6    3
RH2 4 2    3
.MODEL DZ   D   (IS=321F RS=10 N=1.5 IBV=10N BV=180)
.MODEL POUT PNP (IS=321F BF=10 CJE=50P TF=0.1U)
.MODEL NOUT NPN (IS=321F BF=20 CJE=50P CJC=50P TF=0.1U)
.ENDS
**********
.SUBCKT P2000EA   1   2
*     TERMINALS: MT2 MT1
QN1 5 4 2  NOUT OFF
QN2 8 6 7  NOUT OFF
QP1 6 8 2  POUT OFF
QP2 4 5 7  POUT OFF
DF  4 3    DZ OFF
DR  6 3    DZ OFF
RT2 1 7    0.05
RH  7 6    3
RH2 4 2    3
.MODEL DZ   D   (IS=321F RS=10 N=1.5 IBV=10N BV=200)
.MODEL POUT PNP (IS=321F BF=10 CJE=50P TF=0.1U)
.MODEL NOUT NPN (IS=321F BF=20 CJE=50P CJC=50P TF=0.1U)
.ENDS
**********
.SUBCKT P2300EA   1   2
*     TERMINALS: MT2 MT1
QN1 5 4 2  NOUT OFF
QN2 8 6 7  NOUT OFF
QP1 6 8 2  POUT OFF
QP2 4 5 7  POUT OFF
DF  4 3    DZ OFF
DR  6 3    DZ OFF
RT2 1 7    0.05
RH  7 6    3
RH2 4 2    3
.MODEL DZ   D   (IS=321F RS=10 N=1.5 IBV=10N BV=230)
.MODEL POUT PNP (IS=321F BF=10 CJE=50P TF=0.1U)
.MODEL NOUT NPN (IS=321F BF=20 CJE=50P CJC=50P TF=0.1U)
.ENDS
**********
.SUBCKT P2500EA   1   2
*     TERMINALS: MT2 MT1
QN1 5 4 2  NOUT OFF
QN2 8 6 7  NOUT OFF
QP1 6 8 2  POUT OFF
QP2 4 5 7  POUT OFF
DF  4 3    DZ OFF
DR  6 3    DZ OFF
RT2 1 7    0.05
RH  7 6    3
RH2 4 2    3
.MODEL DZ   D   (IS=321F RS=10 N=1.5 IBV=10N BV=250)
.MODEL POUT PNP (IS=321F BF=10 CJE=50P TF=0.1U)
.MODEL NOUT NPN (IS=321F BF=20 CJE=50P CJC=50P TF=0.1U)
.ENDS
**********
.SUBCKT P2600EA   1   2
*     TERMINALS: MT2 MT1
QN1 5 4 2  NOUT OFF
QN2 8 6 7  NOUT OFF
QP1 6 8 2  POUT OFF
QP2 4 5 7  POUT OFF
DF  4 3    DZ OFF
DR  6 3    DZ OFF
RT2 1 7    0.05
RH  7 6    3
RH2 4 2    3
.MODEL DZ   D   (IS=321F RS=10 N=1.5 IBV=10N BV=260)
.MODEL POUT PNP (IS=321F BF=10 CJE=50P TF=0.1U)
.MODEL NOUT NPN (IS=321F BF=20 CJE=50P CJC=50P TF=0.1U)
.ENDS
**********
.SUBCKT P3100EA   1   2
*     TERMINALS: MT2 MT1
QN1 5 4 2  NOUT OFF
QN2 8 6 7  NOUT OFF
QP1 6 8 2  POUT OFF
QP2 4 5 7  POUT OFF
DF  4 3    DZ OFF
DR  6 3    DZ OFF
RT2 1 7    0.05
RH  7 6    3
RH2 4 2    3
.MODEL DZ   D   (IS=321F RS=10 N=1.5 IBV=10N BV=310)
.MODEL POUT PNP (IS=321F BF=10 CJE=50P TF=0.1U)
.MODEL NOUT NPN (IS=321F BF=20 CJE=50P CJC=50P TF=0.1U)
.ENDS
**********
.SUBCKT P3500EA   1   2
*     TERMINALS: MT2 MT1
QN1 5 4 2  NOUT OFF
QN2 8 6 7  NOUT OFF
QP1 6 8 2  POUT OFF
QP2 4 5 7  POUT OFF
DF  4 3    DZ OFF
DR  6 3    DZ OFF
RT2 1 7    0.05
RH  7 6    3
RH2 4 2    3
.MODEL DZ   D   (IS=321F RS=10 N=1.5 IBV=10N BV=350)
.MODEL POUT PNP (IS=321F BF=10 CJE=50P TF=0.1U)
.MODEL NOUT NPN (IS=321F BF=20 CJE=50P CJC=50P TF=0.1U)
.ENDS
********************
* Littelfuse, LP
* SIDACtor SPICE Models
* Pxxx0EB, TO-92, 30V to 350V, "B" Surge Rating
*
* v1: Initial models, T. Chenoski, 10/01/2004
* v2: Add P0300EB, Jifeng Z., 08/08/2010
*
**********
**********
.SUBCKT P0300EB   1   2
*     TERMINALS:  MT2 MT1
QN1 5 4 2  NOUT OFF
QN2 8 6 7  NOUT OFF
QP1 6 8 2  POUT OFF
QP2 4 5 7  POUT OFF
DF  4 3    DZ OFF
DR  6 3    DZ OFF
RT2 1 7    0.05
RH  7 6    3
RH2 4 2    3
.MODEL DZ   D   (IS=321F RS=10 N=1.5 IBV=10N BV=30)
.MODEL POUT PNP (IS=321F BF=10 CJE=50P TF=0.1U)
.MODEL NOUT NPN (IS=321F BF=20 CJE=50P CJC=50P TF=0.1U)
.ENDS
**********
.SUBCKT P0640EB   1   2
*     TERMINALS: MT2 MT1
QN1 5 4 2  NOUT OFF
QN2 8 6 7  NOUT OFF
QP1 6 8 2  POUT OFF
QP2 4 5 7  POUT OFF
DF  4 3    DZ OFF
DR  6 3    DZ OFF
RT2 1 7    0.05
RH  7 6    3
RH2 4 2    3
.MODEL DZ   D   (IS=321F RS=10 N=1.5 IBV=10N BV=64)
.MODEL POUT PNP (IS=321F BF=10 CJE=50P TF=0.1U)
.MODEL NOUT NPN (IS=321F BF=20 CJE=50P CJC=50P TF=0.1U)
.ENDS
**********
.SUBCKT P0720EB   1   2
*     TERMINALS: MT2 MT1
QN1 5 4 2  NOUT OFF
QN2 8 6 7  NOUT OFF
QP1 6 8 2  POUT OFF
QP2 4 5 7  POUT OFF
DF  4 3    DZ OFF
DR  6 3    DZ OFF
RT2 1 7    0.05
RH  7 6    3
RH2 4 2    3
.MODEL DZ   D   (IS=321F RS=10 N=1.5 IBV=10N BV=72)
.MODEL POUT PNP (IS=321F BF=10 CJE=50P TF=0.1U)
.MODEL NOUT NPN (IS=321F BF=20 CJE=50P CJC=50P TF=0.1U)
.ENDS
**********
.SUBCKT P0800EB   1   2
*     TERMINALS: MT2 MT1
QN1 5 4 2  NOUT OFF
QN2 8 6 7  NOUT OFF
QP1 6 8 2  POUT OFF
QP2 4 5 7  POUT OFF
DF  4 3    DZ OFF
DR  6 3    DZ OFF
RT2 1 7    0.05
RH  7 6    3
RH2 4 2    3
.MODEL DZ   D   (IS=321F RS=10 N=1.5 IBV=10N BV=80)
.MODEL POUT PNP (IS=321F BF=10 CJE=50P TF=0.1U)
.MODEL NOUT NPN (IS=321F BF=20 CJE=50P CJC=50P TF=0.1U)
.ENDS
**********
.SUBCKT P0900EB   1   2
*     TERMINALS: MT2 MT1
QN1 5 4 2  NOUT OFF
QN2 8 6 7  NOUT OFF
QP1 6 8 2  POUT OFF
QP2 4 5 7  POUT OFF
DF  4 3    DZ OFF
DR  6 3    DZ OFF
RT2 1 7    0.05
RH  7 6    3
RH2 4 2    3
.MODEL DZ   D   (IS=321F RS=10 N=1.5 IBV=10N BV=90)
.MODEL POUT PNP (IS=321F BF=10 CJE=50P TF=0.1U)
.MODEL NOUT NPN (IS=321F BF=20 CJE=50P CJC=50P TF=0.1U)
.ENDS
**********
.SUBCKT P1100EB   1   2
*     TERMINALS: MT2 MT1
QN1 5 4 2  NOUT OFF
QN2 8 6 7  NOUT OFF
QP1 6 8 2  POUT OFF
QP2 4 5 7  POUT OFF
DF  4 3    DZ OFF
DR  6 3    DZ OFF
RT2 1 7    0.05
RH  7 6    3
RH2 4 2    3
.MODEL DZ   D   (IS=321F RS=10 N=1.5 IBV=10N BV=110)
.MODEL POUT PNP (IS=321F BF=10 CJE=50P TF=0.1U)
.MODEL NOUT NPN (IS=321F BF=20 CJE=50P CJC=50P TF=0.1U)
.ENDS
**********
.SUBCKT P1200EB   1   2
*     TERMINALS: MT2 MT1
QN1 5 4 2  NOUT OFF
QN2 8 6 7  NOUT OFF
QP1 6 8 2  POUT OFF
QP2 4 5 7  POUT OFF
DF  4 3    DZ OFF
DR  6 3    DZ OFF
RT2 1 7    0.05
RH  7 6    3
RH2 4 2    3
.MODEL DZ   D   (IS=321F RS=10 N=1.5 IBV=10N BV=120)
.MODEL POUT PNP (IS=321F BF=10 CJE=50P TF=0.1U)
.MODEL NOUT NPN (IS=321F BF=20 CJE=50P CJC=50P TF=0.1U)
.ENDS
**********
.SUBCKT P1300EB   1   2
*     TERMINALS: MT2 MT1
QN1 5 4 2  NOUT OFF
QN2 8 6 7  NOUT OFF
QP1 6 8 2  POUT OFF
QP2 4 5 7  POUT OFF
DF  4 3    DZ OFF
DR  6 3    DZ OFF
RT2 1 7    0.05
RH  7 6    3
RH2 4 2    3
.MODEL DZ   D   (IS=321F RS=10 N=1.5 IBV=10N BV=130)
.MODEL POUT PNP (IS=321F BF=10 CJE=50P TF=0.1U)
.MODEL NOUT NPN (IS=321F BF=20 CJE=50P CJC=50P TF=0.1U)
.ENDS
**********
.SUBCKT P1500EB   1   2
*     TERMINALS: MT2 MT1
QN1 5 4 2  NOUT OFF
QN2 8 6 7  NOUT OFF
QP1 6 8 2  POUT OFF
QP2 4 5 7  POUT OFF
DF  4 3    DZ OFF
DR  6 3    DZ OFF
RT2 1 7    0.05
RH  7 6    3
RH2 4 2    3
.MODEL DZ   D   (IS=321F RS=10 N=1.5 IBV=10N BV=150)
.MODEL POUT PNP (IS=321F BF=10 CJE=50P TF=0.1U)
.MODEL NOUT NPN (IS=321F BF=20 CJE=50P CJC=50P TF=0.1U)
.ENDS
**********
.SUBCKT P1800EB   1   2
*     TERMINALS: MT2 MT1
QN1 5 4 2  NOUT OFF
QN2 8 6 7  NOUT OFF
QP1 6 8 2  POUT OFF
QP2 4 5 7  POUT OFF
DF  4 3    DZ OFF
DR  6 3    DZ OFF
RT2 1 7    0.05
RH  7 6    3
RH2 4 2    3
.MODEL DZ   D   (IS=321F RS=10 N=1.5 IBV=10N BV=180)
.MODEL POUT PNP (IS=321F BF=10 CJE=50P TF=0.1U)
.MODEL NOUT NPN (IS=321F BF=20 CJE=50P CJC=50P TF=0.1U)
.ENDS
**********
.SUBCKT P2000EB   1   2
*     TERMINALS: MT2 MT1
QN1 5 4 2  NOUT OFF
QN2 8 6 7  NOUT OFF
QP1 6 8 2  POUT OFF
QP2 4 5 7  POUT OFF
DF  4 3    DZ OFF
DR  6 3    DZ OFF
RT2 1 7    0.05
RH  7 6    3
RH2 4 2    3
.MODEL DZ   D   (IS=321F RS=10 N=1.5 IBV=10N BV=200)
.MODEL POUT PNP (IS=321F BF=10 CJE=50P TF=0.1U)
.MODEL NOUT NPN (IS=321F BF=20 CJE=50P CJC=50P TF=0.1U)
.ENDS
**********
.SUBCKT P2300EB   1   2
*     TERMINALS: MT2 MT1
QN1 5 4 2  NOUT OFF
QN2 8 6 7  NOUT OFF
QP1 6 8 2  POUT OFF
QP2 4 5 7  POUT OFF
DF  4 3    DZ OFF
DR  6 3    DZ OFF
RT2 1 7    0.05
RH  7 6    3
RH2 4 2    3
.MODEL DZ   D   (IS=321F RS=10 N=1.5 IBV=10N BV=230)
.MODEL POUT PNP (IS=321F BF=10 CJE=50P TF=0.1U)
.MODEL NOUT NPN (IS=321F BF=20 CJE=50P CJC=50P TF=0.1U)
.ENDS
**********
.SUBCKT P2500EB   1   2
*     TERMINALS: MT2 MT1
QN1 5 4 2  NOUT OFF
QN2 8 6 7  NOUT OFF
QP1 6 8 2  POUT OFF
QP2 4 5 7  POUT OFF
DF  4 3    DZ OFF
DR  6 3    DZ OFF
RT2 1 7    0.05
RH  7 6    3
RH2 4 2    3
.MODEL DZ   D   (IS=321F RS=10 N=1.5 IBV=10N BV=250)
.MODEL POUT PNP (IS=321F BF=10 CJE=50P TF=0.1U)
.MODEL NOUT NPN (IS=321F BF=20 CJE=50P CJC=50P TF=0.1U)
.ENDS
**********
.SUBCKT P2600EB   1   2
*     TERMINALS: MT2 MT1
QN1 5 4 2  NOUT OFF
QN2 8 6 7  NOUT OFF
QP1 6 8 2  POUT OFF
QP2 4 5 7  POUT OFF
DF  4 3    DZ OFF
DR  6 3    DZ OFF
RT2 1 7    0.05
RH  7 6    3
RH2 4 2    3
.MODEL DZ   D   (IS=321F RS=10 N=1.5 IBV=10N BV=260)
.MODEL POUT PNP (IS=321F BF=10 CJE=50P TF=0.1U)
.MODEL NOUT NPN (IS=321F BF=20 CJE=50P CJC=50P TF=0.1U)
.ENDS
**********
.SUBCKT P3100EB   1   2
*     TERMINALS: MT2 MT1
QN1 5 4 2  NOUT OFF
QN2 8 6 7  NOUT OFF
QP1 6 8 2  POUT OFF
QP2 4 5 7  POUT OFF
DF  4 3    DZ OFF
DR  6 3    DZ OFF
RT2 1 7    0.05
RH  7 6    3
RH2 4 2    3
.MODEL DZ   D   (IS=321F RS=10 N=1.5 IBV=10N BV=310)
.MODEL POUT PNP (IS=321F BF=10 CJE=50P TF=0.1U)
.MODEL NOUT NPN (IS=321F BF=20 CJE=50P CJC=50P TF=0.1U)
.ENDS
**********
.SUBCKT P3500EB   1   2
*     TERMINALS: MT2 MT1
QN1 5 4 2  NOUT OFF
QN2 8 6 7  NOUT OFF
QP1 6 8 2  POUT OFF
QP2 4 5 7  POUT OFF
DF  4 3    DZ OFF
DR  6 3    DZ OFF
RT2 1 7    0.05
RH  7 6    3
RH2 4 2    3
.MODEL DZ   D   (IS=321F RS=10 N=1.5 IBV=10N BV=350)
.MODEL POUT PNP (IS=321F BF=10 CJE=50P TF=0.1U)
.MODEL NOUT NPN (IS=321F BF=20 CJE=50P CJC=50P TF=0.1U)
.ENDS
********************
* Littelfuse, LP
* SIDACtor SPICE Models
* Pxxx0EC, TO-92, 30V to 350V, "C" Surge Rating
*
* v1: Initial models, T. Chenoski, 10/01/2004
* v2: Add P0300EC, Jifeng Z., 08/08/2010
*
**********
**********
.SUBCKT P0300EC   1   2
*     TERMINALS:  MT2 MT1
QN1 5 4 2  NOUT OFF
QN2 8 6 7  NOUT OFF
QP1 6 8 2  POUT OFF
QP2 4 5 7  POUT OFF
DF  4 3    DZ OFF
DR  6 3    DZ OFF
RT2 1 7    0.05
RH  7 6    3
RH2 4 2    3
.MODEL DZ   D   (IS=321F RS=10 N=1.5 IBV=10N BV=30)
.MODEL POUT PNP (IS=321F BF=10 CJE=50P TF=0.1U)
.MODEL NOUT NPN (IS=321F BF=20 CJE=50P CJC=50P TF=0.1U)
.ENDS
**********
.SUBCKT P0640EC   1   2
*     TERMINALS: MT2 MT1
QN1 5 4 2  NOUT OFF
QN2 8 6 7  NOUT OFF
QP1 6 8 2  POUT OFF
QP2 4 5 7  POUT OFF
DF  4 3    DZ OFF
DR  6 3    DZ OFF
RT2 1 7    0.05
RH  7 6    3
RH2 4 2    3
.MODEL DZ   D   (IS=321F RS=10 N=1.5 IBV=10N BV=64)
.MODEL POUT PNP (IS=321F BF=10 CJE=50P TF=0.1U)
.MODEL NOUT NPN (IS=321F BF=20 CJE=50P CJC=50P TF=0.1U)
.ENDS
**********
.SUBCKT P0720EC   1   2
*     TERMINALS: MT2 MT1
QN1 5 4 2  NOUT OFF
QN2 8 6 7  NOUT OFF
QP1 6 8 2  POUT OFF
QP2 4 5 7  POUT OFF
DF  4 3    DZ OFF
DR  6 3    DZ OFF
RT2 1 7    0.05
RH  7 6    3
RH2 4 2    3
.MODEL DZ   D   (IS=321F RS=10 N=1.5 IBV=10N BV=72)
.MODEL POUT PNP (IS=321F BF=10 CJE=50P TF=0.1U)
.MODEL NOUT NPN (IS=321F BF=20 CJE=50P CJC=50P TF=0.1U)
.ENDS
**********
.SUBCKT P0900EC   1   2
*     TERMINALS: MT2 MT1
QN1 5 4 2  NOUT OFF
QN2 8 6 7  NOUT OFF
QP1 6 8 2  POUT OFF
QP2 4 5 7  POUT OFF
DF  4 3    DZ OFF
DR  6 3    DZ OFF
RT2 1 7    0.05
RH  7 6    3
RH2 4 2    3
.MODEL DZ   D   (IS=321F RS=10 N=1.5 IBV=10N BV=90)
.MODEL POUT PNP (IS=321F BF=10 CJE=50P TF=0.1U)
.MODEL NOUT NPN (IS=321F BF=20 CJE=50P CJC=50P TF=0.1U)
.ENDS
**********
.SUBCKT P1100EC   1   2
*     TERMINALS: MT2 MT1
QN1 5 4 2  NOUT OFF
QN2 8 6 7  NOUT OFF
QP1 6 8 2  POUT OFF
QP2 4 5 7  POUT OFF
DF  4 3    DZ OFF
DR  6 3    DZ OFF
RT2 1 7    0.05
RH  7 6    3
RH2 4 2    3
.MODEL DZ   D   (IS=321F RS=10 N=1.5 IBV=10N BV=110)
.MODEL POUT PNP (IS=321F BF=10 CJE=50P TF=0.1U)
.MODEL NOUT NPN (IS=321F BF=20 CJE=50P CJC=50P TF=0.1U)
.ENDS
**********
.SUBCKT P1200EC   1   2
*     TERMINALS: MT2 MT1
QN1 5 4 2  NOUT OFF
QN2 8 6 7  NOUT OFF
QP1 6 8 2  POUT OFF
QP2 4 5 7  POUT OFF
DF  4 3    DZ OFF
DR  6 3    DZ OFF
RT2 1 7    0.05
RH  7 6    3
RH2 4 2    3
.MODEL DZ   D   (IS=321F RS=10 N=1.5 IBV=10N BV=120)
.MODEL POUT PNP (IS=321F BF=10 CJE=50P TF=0.1U)
.MODEL NOUT NPN (IS=321F BF=20 CJE=50P CJC=50P TF=0.1U)
.ENDS
**********
.SUBCKT P1300EC   1   2
*     TERMINALS: MT2 MT1
QN1 5 4 2  NOUT OFF
QN2 8 6 7  NOUT OFF
QP1 6 8 2  POUT OFF
QP2 4 5 7  POUT OFF
DF  4 3    DZ OFF
DR  6 3    DZ OFF
RT2 1 7    0.05
RH  7 6    3
RH2 4 2    3
.MODEL DZ   D   (IS=321F RS=10 N=1.5 IBV=10N BV=130)
.MODEL POUT PNP (IS=321F BF=10 CJE=50P TF=0.1U)
.MODEL NOUT NPN (IS=321F BF=20 CJE=50P CJC=50P TF=0.1U)
.ENDS
**********
.SUBCKT P1500EC   1   2
*     TERMINALS: MT2 MT1
QN1 5 4 2  NOUT OFF
QN2 8 6 7  NOUT OFF
QP1 6 8 2  POUT OFF
QP2 4 5 7  POUT OFF
DF  4 3    DZ OFF
DR  6 3    DZ OFF
RT2 1 7    0.05
RH  7 6    3
RH2 4 2    3
.MODEL DZ   D   (IS=321F RS=10 N=1.5 IBV=10N BV=150)
.MODEL POUT PNP (IS=321F BF=10 CJE=50P TF=0.1U)
.MODEL NOUT NPN (IS=321F BF=20 CJE=50P CJC=50P TF=0.1U)
.ENDS
**********
.SUBCKT P1800EC   1   2
*     TERMINALS: MT2 MT1
QN1 5 4 2  NOUT OFF
QN2 8 6 7  NOUT OFF
QP1 6 8 2  POUT OFF
QP2 4 5 7  POUT OFF
DF  4 3    DZ OFF
DR  6 3    DZ OFF
RT2 1 7    0.05
RH  7 6    3
RH2 4 2    3
.MODEL DZ   D   (IS=321F RS=10 N=1.5 IBV=10N BV=180)
.MODEL POUT PNP (IS=321F BF=10 CJE=50P TF=0.1U)
.MODEL NOUT NPN (IS=321F BF=20 CJE=50P CJC=50P TF=0.1U)
.ENDS
**********
.SUBCKT P2000EC   1   2
*     TERMINALS: MT2 MT1
QN1 5 4 2  NOUT OFF
QN2 8 6 7  NOUT OFF
QP1 6 8 2  POUT OFF
QP2 4 5 7  POUT OFF
DF  4 3    DZ OFF
DR  6 3    DZ OFF
RT2 1 7    0.05
RH  7 6    3
RH2 4 2    3
.MODEL DZ   D   (IS=321F RS=10 N=1.5 IBV=10N BV=200)
.MODEL POUT PNP (IS=321F BF=10 CJE=50P TF=0.1U)
.MODEL NOUT NPN (IS=321F BF=20 CJE=50P CJC=50P TF=0.1U)
.ENDS
**********
.SUBCKT P2100EC   1   2
*     TERMINALS: MT2 MT1
QN1 5 4 2  NOUT OFF
QN2 8 6 7  NOUT OFF
QP1 6 8 2  POUT OFF
QP2 4 5 7  POUT OFF
DF  4 3    DZ OFF
DR  6 3    DZ OFF
RT2 1 7    0.05
RH  7 6    3
RH2 4 2    3
.MODEL DZ   D   (IS=321F RS=10 N=1.5 IBV=10N BV=210)
.MODEL POUT PNP (IS=321F BF=10 CJE=50P TF=0.1U)
.MODEL NOUT NPN (IS=321F BF=20 CJE=50P CJC=50P TF=0.1U)
.ENDS
**********
.SUBCKT P2300EC   1   2
*     TERMINALS: MT2 MT1
QN1 5 4 2  NOUT OFF
QN2 8 6 7  NOUT OFF
QP1 6 8 2  POUT OFF
QP2 4 5 7  POUT OFF
DF  4 3    DZ OFF
DR  6 3    DZ OFF
RT2 1 7    0.05
RH  7 6    3
RH2 4 2    3
.MODEL DZ   D   (IS=321F RS=10 N=1.5 IBV=10N BV=230)
.MODEL POUT PNP (IS=321F BF=10 CJE=50P TF=0.1U)
.MODEL NOUT NPN (IS=321F BF=20 CJE=50P CJC=50P TF=0.1U)
.ENDS
**********
.SUBCKT P2500EC   1   2
*     TERMINALS: MT2 MT1
QN1 5 4 2  NOUT OFF
QN2 8 6 7  NOUT OFF
QP1 6 8 2  POUT OFF
QP2 4 5 7  POUT OFF
DF  4 3    DZ OFF
DR  6 3    DZ OFF
RT2 1 7    0.05
RH  7 6    3
RH2 4 2    3
.MODEL DZ   D   (IS=321F RS=10 N=1.5 IBV=10N BV=250)
.MODEL POUT PNP (IS=321F BF=10 CJE=50P TF=0.1U)
.MODEL NOUT NPN (IS=321F BF=20 CJE=50P CJC=50P TF=0.1U)
.ENDS
**********
.SUBCKT P2600EC   1   2
*     TERMINALS: MT2 MT1
QN1 5 4 2  NOUT OFF
QN2 8 6 7  NOUT OFF
QP1 6 8 2  POUT OFF
QP2 4 5 7  POUT OFF
DF  4 3    DZ OFF
DR  6 3    DZ OFF
RT2 1 7    0.05
RH  7 6    3
RH2 4 2    3
.MODEL DZ   D   (IS=321F RS=10 N=1.5 IBV=10N BV=260)
.MODEL POUT PNP (IS=321F BF=10 CJE=50P TF=0.1U)
.MODEL NOUT NPN (IS=321F BF=20 CJE=50P CJC=50P TF=0.1U)
.ENDS
**********
.SUBCKT P3100EC   1   2
*     TERMINALS: MT2 MT1
QN1 5 4 2  NOUT OFF
QN2 8 6 7  NOUT OFF
QP1 6 8 2  POUT OFF
QP2 4 5 7  POUT OFF
DF  4 3    DZ OFF
DR  6 3    DZ OFF
RT2 1 7    0.05
RH  7 6    3
RH2 4 2    3
.MODEL DZ   D   (IS=321F RS=10 N=1.5 IBV=10N BV=310)
.MODEL POUT PNP (IS=321F BF=10 CJE=50P TF=0.1U)
.MODEL NOUT NPN (IS=321F BF=20 CJE=50P CJC=50P TF=0.1U)
.ENDS
**********
.SUBCKT P3500EC   1   2
*     TERMINALS: MT2 MT1
QN1 5 4 2  NOUT OFF
QN2 8 6 7  NOUT OFF
QP1 6 8 2  POUT OFF
QP2 4 5 7  POUT OFF
DF  4 3    DZ OFF
DR  6 3    DZ OFF
RT2 1 7    0.05
RH  7 6    3
RH2 4 2    3
.MODEL DZ   D   (IS=321F RS=10 N=1.5 IBV=10N BV=350)
.MODEL POUT PNP (IS=321F BF=10 CJE=50P TF=0.1U)
.MODEL NOUT NPN (IS=321F BF=20 CJE=50P CJC=50P TF=0.1U)
.ENDS
********************
* Littelfuse, LP
* SIDACtor SPICE Models
* Pxxx0Q12AL, QFN, 8V to 350V, "A" Surge Rating
*
* v1: Derived from DO-214 model, T. Chenoski, 02/27/08
*
**********
.SUBCKT P0080Q12AL  1   2
*     TERMINALS:   MT2 MT1
QN1 5 4 2  NOUT OFF
QN2 8 6 7  NOUT OFF
QP1 6 8 2  POUT OFF
QP2 4 5 7  POUT OFF
DF  4 3    DZ OFF
DR  6 3    DZ OFF
RT2 1 7    0.05
RH  7 6    3
RH2 4 2    3
.MODEL DZ   D   (IS=321F RS=10 N=1.5 IBV=10N BV=8)
.MODEL POUT PNP (IS=321F BF=10 CJE=50P TF=0.1U)
.MODEL NOUT NPN (IS=321F BF=20 CJE=50P CJC=50P TF=0.1U)
.ENDS
**********
.SUBCKT P0300Q12AL  1   2
*     TERMINALS:   MT2 MT1
QN1 5 4 2  NOUT OFF
QN2 8 6 7  NOUT OFF
QP1 6 8 2  POUT OFF
QP2 4 5 7  POUT OFF
DF  4 3    DZ OFF
DR  6 3    DZ OFF
RT2 1 7    0.05
RH  7 6    3
RH2 4 2    3
.MODEL DZ   D   (IS=321F RS=10 N=1.5 IBV=10N BV=30)
.MODEL POUT PNP (IS=321F BF=10 CJE=50P TF=0.1U)
.MODEL NOUT NPN (IS=321F BF=20 CJE=50P CJC=50P TF=0.1U)
.ENDS
**********
.SUBCKT P0640Q12AL  1   2
*     TERMINALS:   MT2 MT1
QN1 5 4 2  NOUT OFF
QN2 8 6 7  NOUT OFF
QP1 6 8 2  POUT OFF
QP2 4 5 7  POUT OFF
DF  4 3    DZ OFF
DR  6 3    DZ OFF
RT2 1 7    0.05
RH  7 6    3
RH2 4 2    3
.MODEL DZ   D   (IS=321F RS=10 N=1.5 IBV=10N BV=64)
.MODEL POUT PNP (IS=321F BF=10 CJE=50P TF=0.1U)
.MODEL NOUT NPN (IS=321F BF=20 CJE=50P CJC=50P TF=0.1U)
.ENDS
**********
.SUBCKT P0720Q12AL  1   2
*     TERMINALS:   MT2 MT1
QN1 5 4 2  NOUT OFF
QN2 8 6 7  NOUT OFF
QP1 6 8 2  POUT OFF
QP2 4 5 7  POUT OFF
DF  4 3    DZ OFF
DR  6 3    DZ OFF
RT2 1 7    0.05
RH  7 6    3
RH2 4 2    3
.MODEL DZ   D   (IS=321F RS=10 N=1.5 IBV=10N BV=72)
.MODEL POUT PNP (IS=321F BF=10 CJE=50P TF=0.1U)
.MODEL NOUT NPN (IS=321F BF=20 CJE=50P CJC=50P TF=0.1U)
.ENDS
**********
.SUBCKT P0900Q12AL  1   2
*     TERMINALS:   MT2 MT1
QN1 5 4 2  NOUT OFF
QN2 8 6 7  NOUT OFF
QP1 6 8 2  POUT OFF
QP2 4 5 7  POUT OFF
DF  4 3    DZ OFF
DR  6 3    DZ OFF
RT2 1 7    0.05
RH  7 6    3
RH2 4 2    3
.MODEL DZ   D   (IS=321F RS=10 N=1.5 IBV=10N BV=90)
.MODEL POUT PNP (IS=321F BF=10 CJE=50P TF=0.1U)
.MODEL NOUT NPN (IS=321F BF=20 CJE=50P CJC=50P TF=0.1U)
.ENDS
**********
.SUBCKT P1100Q12AL  1   2
*     TERMINALS:   MT2 MT1
QN1 5 4 2  NOUT OFF
QN2 8 6 7  NOUT OFF
QP1 6 8 2  POUT OFF
QP2 4 5 7  POUT OFF
DF  4 3    DZ OFF
DR  6 3    DZ OFF
RT2 1 7    0.05
RH  7 6    3
RH2 4 2    3
.MODEL DZ   D   (IS=321F RS=10 N=1.5 IBV=10N BV=110)
.MODEL POUT PNP (IS=321F BF=10 CJE=50P TF=0.1U)
.MODEL NOUT NPN (IS=321F BF=20 CJE=50P CJC=50P TF=0.1U)
.ENDS
**********
.SUBCKT P1300Q12AL  1   2
*     TERMINALS:   MT2 MT1
QN1 5 4 2  NOUT OFF
QN2 8 6 7  NOUT OFF
QP1 6 8 2  POUT OFF
QP2 4 5 7  POUT OFF
DF  4 3    DZ OFF
DR  6 3    DZ OFF
RT2 1 7    0.05
RH  7 6    3
RH2 4 2    3
.MODEL DZ   D   (IS=321F RS=10 N=1.5 IBV=10N BV=130)
.MODEL POUT PNP (IS=321F BF=10 CJE=50P TF=0.1U)
.MODEL NOUT NPN (IS=321F BF=20 CJE=50P CJC=50P TF=0.1U)
.ENDS
**********
.SUBCKT P1500Q12AL  1   2
*     TERMINALS:   MT2 MT1
QN1 5 4 2  NOUT OFF
QN2 8 6 7  NOUT OFF
QP1 6 8 2  POUT OFF
QP2 4 5 7  POUT OFF
DF  4 3    DZ OFF
DR  6 3    DZ OFF
RT2 1 7    0.05
RH  7 6    3
RH2 4 2    3
.MODEL DZ   D   (IS=321F RS=10 N=1.5 IBV=10N BV=150)
.MODEL POUT PNP (IS=321F BF=10 CJE=50P TF=0.1U)
.MODEL NOUT NPN (IS=321F BF=20 CJE=50P CJC=50P TF=0.1U)
.ENDS
**********
.SUBCKT P1800Q12AL  1   2
*     TERMINALS:   MT2 MT1
QN1 5 4 2  NOUT OFF
QN2 8 6 7  NOUT OFF
QP1 6 8 2  POUT OFF
QP2 4 5 7  POUT OFF
DF  4 3    DZ OFF
DR  6 3    DZ OFF
RT2 1 7    0.05
RH  7 6    3
RH2 4 2    3
.MODEL DZ   D   (IS=321F RS=10 N=1.5 IBV=10N BV=180)
.MODEL POUT PNP (IS=321F BF=10 CJE=50P TF=0.1U)
.MODEL NOUT NPN (IS=321F BF=20 CJE=50P CJC=50P TF=0.1U)
.ENDS
**********
.SUBCKT P2300Q12AL  1   2
*     TERMINALS:   MT2 MT1
QN1 5 4 2  NOUT OFF
QN2 8 6 7  NOUT OFF
QP1 6 8 2  POUT OFF
QP2 4 5 7  POUT OFF
DF  4 3    DZ OFF
DR  6 3    DZ OFF
RT2 1 7    0.05
RH  7 6    3
RH2 4 2    3
.MODEL DZ   D   (IS=321F RS=10 N=1.5 IBV=10N BV=230)
.MODEL POUT PNP (IS=321F BF=10 CJE=50P TF=0.1U)
.MODEL NOUT NPN (IS=321F BF=20 CJE=50P CJC=50P TF=0.1U)
.ENDS
**********
.SUBCKT P2600Q12AL  1   2
*     TERMINALS:   MT2 MT1
QN1 5 4 2  NOUT OFF
QN2 8 6 7  NOUT OFF
QP1 6 8 2  POUT OFF
QP2 4 5 7  POUT OFF
DF  4 3    DZ OFF
DR  6 3    DZ OFF
RT2 1 7    0.05
RH  7 6    3
RH2 4 2    3
.MODEL DZ   D   (IS=321F RS=10 N=1.5 IBV=10N BV=260)
.MODEL POUT PNP (IS=321F BF=10 CJE=50P TF=0.1U)
.MODEL NOUT NPN (IS=321F BF=20 CJE=50P CJC=50P TF=0.1U)
.ENDS
**********
.SUBCKT P3100Q12AL  1   2
*     TERMINALS:   MT2 MT1
QN1 5 4 2  NOUT OFF
QN2 8 6 7  NOUT OFF
QP1 6 8 2  POUT OFF
QP2 4 5 7  POUT OFF
DF  4 3    DZ OFF
DR  6 3    DZ OFF
RT2 1 7    0.05
RH  7 6    3
RH2 4 2    3
.MODEL DZ   D   (IS=321F RS=10 N=1.5 IBV=10N BV=310)
.MODEL POUT PNP (IS=321F BF=10 CJE=50P TF=0.1U)
.MODEL NOUT NPN (IS=321F BF=20 CJE=50P CJC=50P TF=0.1U)
.ENDS
**********
.SUBCKT P3500Q12AL  1   2
*     TERMINALS:   MT2 MT1
QN1 5 4 2  NOUT OFF
QN2 8 6 7  NOUT OFF
QP1 6 8 2  POUT OFF
QP2 4 5 7  POUT OFF
DF  4 3    DZ OFF
DR  6 3    DZ OFF
RT2 1 7    0.05
RH  7 6    3
RH2 4 2    3
.MODEL DZ   D   (IS=321F RS=10 N=1.5 IBV=10N BV=350)
.MODEL POUT PNP (IS=321F BF=10 CJE=50P TF=0.1U)
.MODEL NOUT NPN (IS=321F BF=20 CJE=50P CJC=50P TF=0.1U)
.ENDS
********************
* Littelfuse, LP
* SIDACtor SPICE Models
* Pxxx0SA, DO-214, 64V to 350V, "A" Surge Rating
*
* v1: Initial models, T. Chenoski, 10/01/2004
*
**********
**********
.SUBCKT P0640SA   1   2
*     TERMINALS: MT2 MT1
QN1 5 4 2  NOUT OFF
QN2 8 6 7  NOUT OFF
QP1 6 8 2  POUT OFF
QP2 4 5 7  POUT OFF
DF  4 3    DZ OFF
DR  6 3    DZ OFF
RT2 1 7    0.05
RH  7 6    3
RH2 4 2    3
.MODEL DZ   D   (IS=321F RS=10 N=1.5 IBV=10N BV=64)
.MODEL POUT PNP (IS=321F BF=10 CJE=50P TF=0.1U)
.MODEL NOUT NPN (IS=321F BF=20 CJE=50P CJC=50P TF=0.1U)
.ENDS
**********
.SUBCKT P0720SA   1   2
*     TERMINALS: MT2 MT1
QN1 5 4 2  NOUT OFF
QN2 8 6 7  NOUT OFF
QP1 6 8 2  POUT OFF
QP2 4 5 7  POUT OFF
DF  4 3    DZ OFF
DR  6 3    DZ OFF
RT2 1 7    0.05
RH  7 6    3
RH2 4 2    3
.MODEL DZ   D   (IS=321F RS=10 N=1.5 IBV=10N BV=72)
.MODEL POUT PNP (IS=321F BF=10 CJE=50P TF=0.1U)
.MODEL NOUT NPN (IS=321F BF=20 CJE=50P CJC=50P TF=0.1U)
.ENDS
**********
.SUBCKT P0800SA   1   2
*     TERMINALS: MT2 MT1
QN1 5 4 2  NOUT OFF
QN2 8 6 7  NOUT OFF
QP1 6 8 2  POUT OFF
QP2 4 5 7  POUT OFF
DF  4 3    DZ OFF
DR  6 3    DZ OFF
RT2 1 7    0.05
RH  7 6    3
RH2 4 2    3
.MODEL DZ   D   (IS=321F RS=10 N=1.5 IBV=10N BV=80)
.MODEL POUT PNP (IS=321F BF=10 CJE=50P TF=0.1U)
.MODEL NOUT NPN (IS=321F BF=20 CJE=50P CJC=50P TF=0.1U)
.ENDS
**********
.SUBCKT P0900SA   1   2
*     TERMINALS: MT2 MT1
QN1 5 4 2  NOUT OFF
QN2 8 6 7  NOUT OFF
QP1 6 8 2  POUT OFF
QP2 4 5 7  POUT OFF
DF  4 3    DZ OFF
DR  6 3    DZ OFF
RT2 1 7    0.05
RH  7 6    3
RH2 4 2    3
.MODEL DZ   D   (IS=321F RS=10 N=1.5 IBV=10N BV=90)
.MODEL POUT PNP (IS=321F BF=10 CJE=50P TF=0.1U)
.MODEL NOUT NPN (IS=321F BF=20 CJE=50P CJC=50P TF=0.1U)
.ENDS
**********
.SUBCKT P1100SA   1   2
*     TERMINALS: MT2 MT1
QN1 5 4 2  NOUT OFF
QN2 8 6 7  NOUT OFF
QP1 6 8 2  POUT OFF
QP2 4 5 7  POUT OFF
DF  4 3    DZ OFF
DR  6 3    DZ OFF
RT2 1 7    0.05
RH  7 6    3
RH2 4 2    3
.MODEL DZ   D   (IS=321F RS=10 N=1.5 IBV=10N BV=110)
.MODEL POUT PNP (IS=321F BF=10 CJE=50P TF=0.1U)
.MODEL NOUT NPN (IS=321F BF=20 CJE=50P CJC=50P TF=0.1U)
.ENDS
**********
.SUBCKT P1300SA   1   2
*     TERMINALS: MT2 MT1
QN1 5 4 2  NOUT OFF
QN2 8 6 7  NOUT OFF
QP1 6 8 2  POUT OFF
QP2 4 5 7  POUT OFF
DF  4 3    DZ OFF
DR  6 3    DZ OFF
RT2 1 7    0.05
RH  7 6    3
RH2 4 2    3
.MODEL DZ   D   (IS=321F RS=10 N=1.5 IBV=10N BV=130)
.MODEL POUT PNP (IS=321F BF=10 CJE=50P TF=0.1U)
.MODEL NOUT NPN (IS=321F BF=20 CJE=50P CJC=50P TF=0.1U)
.ENDS
**********
.SUBCKT P1500SA   1   2
*     TERMINALS: MT2 MT1
QN1 5 4 2  NOUT OFF
QN2 8 6 7  NOUT OFF
QP1 6 8 2  POUT OFF
QP2 4 5 7  POUT OFF
DF  4 3    DZ OFF
DR  6 3    DZ OFF
RT2 1 7    0.05
RH  7 6    3
RH2 4 2    3
.MODEL DZ   D   (IS=321F RS=10 N=1.5 IBV=10N BV=150)
.MODEL POUT PNP (IS=321F BF=10 CJE=50P TF=0.1U)
.MODEL NOUT NPN (IS=321F BF=20 CJE=50P CJC=50P TF=0.1U)
.ENDS
**********
.SUBCKT P1800SA   1   2
*     TERMINALS: MT2 MT1
QN1 5 4 2  NOUT OFF
QN2 8 6 7  NOUT OFF
QP1 6 8 2  POUT OFF
QP2 4 5 7  POUT OFF
DF  4 3    DZ OFF
DR  6 3    DZ OFF
RT2 1 7    0.05
RH  7 6    3
RH2 4 2    3
.MODEL DZ   D   (IS=321F RS=10 N=1.5 IBV=10N BV=180)
.MODEL POUT PNP (IS=321F BF=10 CJE=50P TF=0.1U)
.MODEL NOUT NPN (IS=321F BF=20 CJE=50P CJC=50P TF=0.1U)
.ENDS
**********
.SUBCKT P2000SA   1   2
*     TERMINALS: MT2 MT1
QN1 5 4 2  NOUT OFF
QN2 8 6 7  NOUT OFF
QP1 6 8 2  POUT OFF
QP2 4 5 7  POUT OFF
DF  4 3    DZ OFF
DR  6 3    DZ OFF
RT2 1 7    0.05
RH  7 6    3
RH2 4 2    3
.MODEL DZ   D   (IS=321F RS=10 N=1.5 IBV=10N BV=200)
.MODEL POUT PNP (IS=321F BF=10 CJE=50P TF=0.1U)
.MODEL NOUT NPN (IS=321F BF=20 CJE=50P CJC=50P TF=0.1U)
.ENDS
**********
.SUBCKT P2300SA   1   2
*     TERMINALS: MT2 MT1
QN1 5 4 2  NOUT OFF
QN2 8 6 7  NOUT OFF
QP1 6 8 2  POUT OFF
QP2 4 5 7  POUT OFF
DF  4 3    DZ OFF
DR  6 3    DZ OFF
RT2 1 7    0.05
RH  7 6    3
RH2 4 2    3
.MODEL DZ   D   (IS=321F RS=10 N=1.5 IBV=10N BV=230)
.MODEL POUT PNP (IS=321F BF=10 CJE=50P TF=0.1U)
.MODEL NOUT NPN (IS=321F BF=20 CJE=50P CJC=50P TF=0.1U)
.ENDS
**********
.SUBCKT P2500SA   1   2
*     TERMINALS: MT2 MT1
QN1 5 4 2  NOUT OFF
QN2 8 6 7  NOUT OFF
QP1 6 8 2  POUT OFF
QP2 4 5 7  POUT OFF
DF  4 3    DZ OFF
DR  6 3    DZ OFF
RT2 1 7    0.05
RH  7 6    3
RH2 4 2    3
.MODEL DZ   D   (IS=321F RS=10 N=1.5 IBV=10N BV=250)
.MODEL POUT PNP (IS=321F BF=10 CJE=50P TF=0.1U)
.MODEL NOUT NPN (IS=321F BF=20 CJE=50P CJC=50P TF=0.1U)
.ENDS
**********
.SUBCKT P2600SA   1   2
*     TERMINALS: MT2 MT1
QN1 5 4 2  NOUT OFF
QN2 8 6 7  NOUT OFF
QP1 6 8 2  POUT OFF
QP2 4 5 7  POUT OFF
DF  4 3    DZ OFF
DR  6 3    DZ OFF
RT2 1 7    0.05
RH  7 6    3
RH2 4 2    3
.MODEL DZ   D   (IS=321F RS=10 N=1.5 IBV=10N BV=260)
.MODEL POUT PNP (IS=321F BF=10 CJE=50P TF=0.1U)
.MODEL NOUT NPN (IS=321F BF=20 CJE=50P CJC=50P TF=0.1U)
.ENDS
**********
.SUBCKT P3100SA   1   2
*     TERMINALS: MT2 MT1
QN1 5 4 2  NOUT OFF
QN2 8 6 7  NOUT OFF
QP1 6 8 2  POUT OFF
QP2 4 5 7  POUT OFF
DF  4 3    DZ OFF
DR  6 3    DZ OFF
RT2 1 7    0.05
RH  7 6    3
RH2 4 2    3
.MODEL DZ   D   (IS=321F RS=10 N=1.5 IBV=10N BV=310)
.MODEL POUT PNP (IS=321F BF=10 CJE=50P TF=0.1U)
.MODEL NOUT NPN (IS=321F BF=20 CJE=50P CJC=50P TF=0.1U)
.ENDS
**********
.SUBCKT P3500SA   1   2
*     TERMINALS: MT2 MT1
QN1 5 4 2  NOUT OFF
QN2 8 6 7  NOUT OFF
QP1 6 8 2  POUT OFF
QP2 4 5 7  POUT OFF
DF  4 3    DZ OFF
DR  6 3    DZ OFF
RT2 1 7    0.05
RH  7 6    3
RH2 4 2    3
.MODEL DZ   D   (IS=321F RS=10 N=1.5 IBV=10N BV=350)
.MODEL POUT PNP (IS=321F BF=10 CJE=50P TF=0.1U)
.MODEL NOUT NPN (IS=321F BF=20 CJE=50P CJC=50P TF=0.1U)
.ENDS
********************
* Littelfuse, LP
* SIDACtor SPICE Models
* Pxxx0SAMC, DO-214, 30V only, "A" Surge Rating
*
* v1: Initial models, Jifeng Z., 08/25/2010
*
**********
**********
.SUBCKT P0300SAMC   1   2
*     TERMINALS:  MT2 MT1
QN1 5 4 2  NOUT OFF
QN2 8 6 7  NOUT OFF
QP1 6 8 2  POUT OFF
QP2 4 5 7  POUT OFF
DF  4 3    DZ OFF
DR  6 3    DZ OFF
RT2 1 7    0.05
RH  7 6    3
RH2 4 2    3
.MODEL DZ   D   (IS=321F RS=10 N=1.5 IBV=10N BV=30)
.MODEL POUT PNP (IS=321F BF=10 CJE=50P TF=0.1U)
.MODEL NOUT NPN (IS=321F BF=20 CJE=50P CJC=50P TF=0.1U)
.ENDS
**********
**********
* Littelfuse, LP
* SIDACtor SPICE Models
* Pxxx0SAMC, DO-214, 30V to 350V, "C" Surge Rating
*
* v1: Initial models, Jifeng Z., 08/25/2010
*
**********
**********
.SUBCKT P0300SCMC   1   2
*     TERMINALS:  MT2 MT1
QN1 5 4 2  NOUT OFF