**********************************
**********************************
**
** Littelfuse, LP
** SCR SPICE Models
** Sx01E-SxN1
**
** T. Chenoski
** Irving Technical Center
**
** A 06/14/08
**
**********************************
**********************************
.SUBCKT S401E      1  2             3
*       TERMINALS: A  G             K
Qpnp    6          4  1             Pfor      OFF
Qnpn    4          6  5             Nfor      OFF
Rfor    6          4  5G
Rrev    1          4  5G
Rshort  6          5  50
Rlat    2          6  2.64
Ron     3          5  364.6m
Dfor    6          4  Zbrk
Drev    1          4  Zbrk
Dgate   6          5  Zgate
.MODEL  Zbrk       D  (IS=10F       IBV=1U    BV=400)
.MODEL  Zgate      D  (IS=10F       IBV=100U  BV=10      VJ=0.3)
.MODEL  Pfor       PNP(IS=10P       BF=1.0    CJE=5p     CJC=2p     TF=0.3U)
.MODEL  Nfor       NPN(IS=10P       ISE=1E-9  BF=100.0   RC=13.6M   CJE=30p     CJC=2p      TF=0.3U)
.ENDS

.SUBCKT S4N1       1  2             3
*       TERMINALS: A  G             K
Qpnp    6          4  1             Pfor      OFF
Qnpn    4          6  5             Nfor      OFF
Rfor    6          4  5G
Rrev    1          4  5G
Rshort  6          5  50
Rlat    2          6  2.64
Ron     3          5  364.6m
Dfor    6          4  Zbrk
Drev    1          4  Zbrk
Dgate   6          5  Zgate
.MODEL  Zbrk       D  (IS=10F       IBV=1U    BV=400)
.MODEL  Zgate      D  (IS=10F       IBV=100U  BV=10      VJ=0.3)
.MODEL  Pfor       PNP(IS=10P       BF=1.0    CJE=5p     CJC=2p     TF=0.3U)
.MODEL  Nfor       NPN(IS=10P       ISE=1E-9  BF=100.0   RC=13.6M   CJE=30p     CJC=2p      TF=0.3U)
.ENDS

.SUBCKT S601E      1  2             3
*       TERMINALS: A  G             K
Qpnp    6          4  1             Pfor      OFF
Qnpn    4          6  5             Nfor      OFF
Rfor    6          4  5G
Rrev    1          4  5G
Rshort  6          5  50
Rlat    2          6  2.64
Ron     3          5  364.6m
Dfor    6          4  Zbrk
Drev    1          4  Zbrk
Dgate   6          5  Zgate
.MODEL  Zbrk       D  (IS=10F       IBV=1U    BV=600)
.MODEL  Zgate      D  (IS=10F       IBV=100U  BV=10      VJ=0.3)
.MODEL  Pfor       PNP(IS=10P       BF=1.0    CJE=5p     CJC=2p     TF=0.3U)
.MODEL  Nfor       NPN(IS=10P       ISE=1E-9  BF=100.0   RC=13.6M   CJE=30p     CJC=2p      TF=0.3U)
.ENDS

.SUBCKT S6N1       1  2             3
*       TERMINALS: A  G             K
Qpnp    6          4  1             Pfor      OFF
Qnpn    4          6  5             Nfor      OFF
Rfor    6          4  5G
Rrev    1          4  5G
Rshort  6          5  50
Rlat    2          6  2.64
Ron     3          5  364.6m
Dfor    6          4  Zbrk
Drev    1          4  Zbrk
Dgate   6          5  Zgate
.MODEL  Zbrk       D  (IS=10F       IBV=1U    BV=600)
.MODEL  Zgate      D  (IS=10F       IBV=100U  BV=10      VJ=0.3)
.MODEL  Pfor       PNP(IS=10P       BF=1.0    CJE=5p     CJC=2p     TF=0.3U)
.MODEL  Nfor       NPN(IS=10P       ISE=1E-9  BF=100.0   RC=13.6M   CJE=30p     CJC=2p      TF=0.3U)
.ENDS

**********************************
**********************************
**
** Littelfuse, LP
** SCR SPICE Models
** Sx02xS
**
** T. Chenoski
** Irving Technical Center
**
** A 06/14/08
**
**********************************
**********************************
.SUBCKT S402ES     1  2             3
*       TERMINALS: A  G             K
Qpnp    6          4  1             Pfor      OFF
Qnpn    4          6  5             Nfor      OFF
Rfor    6          4  5G
Rrev    1          4  5G
Rshort  6          5  1MEG
Rlat    2          6  9.09
Ron     3          5  211.3m
Dfor    6          4  Zbrk
Drev    1          4  Zbrk
Dgate   6          5  Zgate
.MODEL  Zbrk       D  (IS=3.2E-16   IBV=100U  BV=400)
.MODEL  Zgate      D  (IS=1E-16     IBV=100U  BV=10      VJ=0.3)
.MODEL  Pfor       PNP(IS=5E-15     BF=1.10   CJE=10p    CJC=5p     TF=0.3U)
.MODEL  Nfor       NPN(IS=1E-12     ISE=1E-9  BF=10.0    RC=0.45    CJE=100p    CJC=5p      TF=0.3U)
.ENDS

.SUBCKT S402TS     1  2             3
*       TERMINALS: A  G             K
Qpnp    6          4  1             Pfor      OFF
Qnpn    4          6  5             Nfor      OFF
Rfor    6          4  5G
Rrev    1          4  5G
Rshort  6          5  1MEG
Rlat    2          6  9.09
Ron     3          5  211.3m
Dfor    6          4  Zbrk
Drev    1          4  Zbrk
Dgate   6          5  Zgate
.MODEL  Zbrk       D  (IS=3.2E-16   IBV=100U  BV=400)
.MODEL  Zgate      D  (IS=1E-16     IBV=100U  BV=10      VJ=0.3)
.MODEL  Pfor       PNP(IS=5E-15     BF=1.10   CJE=10p    CJC=5p     TF=0.3U)
.MODEL  Nfor       NPN(IS=1E-12     ISE=1E-9  BF=10.0    RC=0.45    CJE=100p    CJC=5p      TF=0.3U)
.ENDS

.SUBCKT S602ES     1  2             3
*       TERMINALS: A  G             K
Qpnp    6          4  1             Pfor      OFF
Qnpn    4          6  5             Nfor      OFF
Rfor    6          4  5G
Rrev    1          4  5G
Rshort  6          5  1MEG
Rlat    2          6  9.09
Ron     3          5  211.3m
Dfor    6          4  Zbrk
Drev    1          4  Zbrk
Dgate   6          5  Zgate
.MODEL  Zbrk       D  (IS=3.2E-16   IBV=100U  BV=600)
.MODEL  Zgate      D  (IS=1E-16     IBV=100U  BV=10      VJ=0.3)
.MODEL  Pfor       PNP(IS=5E-15     BF=1.10   CJE=10p    CJC=5p     TF=0.3U)
.MODEL  Nfor       NPN(IS=1E-12     ISE=1E-9  BF=10.0    RC=0.45    CJE=100p    CJC=5p      TF=0.3U)
.ENDS

.SUBCKT S602TS     1  2             3
*       TERMINALS: A  G             K
Qpnp    6          4  1             Pfor      OFF
Qnpn    4          6  5             Nfor      OFF
Rfor    6          4  5G
Rrev    1          4  5G
Rshort  6          5  1MEG
Rlat    2          6  9.09
Ron     3          5  211.3m
Dfor    6          4  Zbrk
Drev    1          4  Zbrk
Dgate   6          5  Zgate
.MODEL  Zbrk       D  (IS=3.2E-16   IBV=100U  BV=600)
.MODEL  Zgate      D  (IS=1E-16     IBV=100U  BV=10      VJ=0.3)
.MODEL  Pfor       PNP(IS=5E-15     BF=1.10   CJE=10p    CJC=5p     TF=0.3U)
.MODEL  Nfor       NPN(IS=1E-12     ISE=1E-9  BF=10.0    RC=0.45    CJE=100p    CJC=5p      TF=0.3U)
.ENDS

**********************************
**********************************
**
** Littelfuse, LP
** SCR SPICE Models
** Sxx04xSx
**
** T. Chenoski
** Irving Technical Center
**
** A 06/14/08
**
**********************************
**********************************
.SUBCKT S4004DS1   1  2             3
*       TERMINALS: A  G             K
Qpnp    6          4  1             Pfor      OFF
Qnpn    4          6  5             Nfor      OFF
Rfor    6          4  5G
Rrev    1          4  5G
Rshort  6          5  1MEG
Rlat    2          6  9.09
Ron     3          5  154.6m
Dfor    6          4  Zbrk
Drev    1          4  Zbrk
Dgate   6          5  Zgate
.MODEL  Zbrk       D  (IS=3.2E-16   IBV=100U  BV=400)
.MODEL  Zgate      D  (IS=1E-16     IBV=100U  BV=10      VJ=0.3)
.MODEL  Pfor       PNP(IS=5E-15     BF=2.20   CJE=10p    CJC=5p     TF=0.3U)
.MODEL  Nfor       NPN(IS=1E-12     ISE=1E-9  BF=10.0    RC=0.45    CJE=100p    CJC=5p      TF=0.3U)
.ENDS

.SUBCKT S4004VS1   1  2             3
*       TERMINALS: A  G             K
Qpnp    6          4  1             Pfor      OFF
Qnpn    4          6  5             Nfor      OFF
Rfor    6          4  5G
Rrev    1          4  5G
Rshort  6          5  1MEG
Rlat    2          6  9.09
Ron     3          5  154.6m
Dfor    6          4  Zbrk
Drev    1          4  Zbrk
Dgate   6          5  Zgate
.MODEL  Zbrk       D  (IS=3.2E-16   IBV=100U  BV=400)
.MODEL  Zgate      D  (IS=1E-16     IBV=100U  BV=10      VJ=0.3)
.MODEL  Pfor       PNP(IS=5E-15     BF=2.20   CJE=10p    CJC=5p     TF=0.3U)
.MODEL  Nfor       NPN(IS=1E-12     ISE=1E-9  BF=10.0    RC=0.45    CJE=100p    CJC=5p      TF=0.3U)
.ENDS

.SUBCKT S6004DS1   1  2             3
*       TERMINALS: A  G             K
Qpnp    6          4  1             Pfor      OFF
Qnpn    4          6  5             Nfor      OFF
Rfor    6          4  5G
Rrev    1          4  5G
Rshort  6          5  1MEG
Rlat    2          6  9.09
Ron     3          5  154.6m
Dfor    6          4  Zbrk
Drev    1          4  Zbrk
Dgate   6          5  Zgate
.MODEL  Zbrk       D  (IS=3.2E-16   IBV=100U  BV=600)
.MODEL  Zgate      D  (IS=1E-16     IBV=100U  BV=10      VJ=0.3)
.MODEL  Pfor       PNP(IS=5E-15     BF=2.20   CJE=10p    CJC=5p     TF=0.3U)
.MODEL  Nfor       NPN(IS=1E-12     ISE=1E-9  BF=10.0    RC=0.45    CJE=100p    CJC=5p      TF=0.3U)
.ENDS

.SUBCKT S6004VS1   1  2             3
*       TERMINALS: A  G             K
Qpnp    6          4  1             Pfor      OFF
Qnpn    4          6  5             Nfor      OFF
Rfor    6          4  5G
Rrev    1          4  5G
Rshort  6          5  1MEG
Rlat    2          6  9.09
Ron     3          5  154.6m
Dfor    6          4  Zbrk
Drev    1          4  Zbrk
Dgate   6          5  Zgate
.MODEL  Zbrk       D  (IS=3.2E-16   IBV=100U  BV=600)
.MODEL  Zgate      D  (IS=1E-16     IBV=100U  BV=10      VJ=0.3)
.MODEL  Pfor       PNP(IS=5E-15     BF=2.20   CJE=10p    CJC=5p     TF=0.3U)
.MODEL  Nfor       NPN(IS=1E-12     ISE=1E-9  BF=10.0    RC=0.45    CJE=100p    CJC=5p      TF=0.3U)
.ENDS

.SUBCKT S4004DS2   1  2             3
*       TERMINALS: A  G             K
Qpnp    6          4  1             Pfor      OFF
Qnpn    4          6  5             Nfor      OFF
Rfor    6          4  5G
Rrev    1          4  5G
Rshort  6          5  1MEG
Rlat    2          6  9.09
Ron     3          5  154.6m
Dfor    6          4  Zbrk
Drev    1          4  Zbrk
Dgate   6          5  Zgate
.MODEL  Zbrk       D  (IS=3.2E-16   IBV=100U  BV=400)
.MODEL  Zgate      D  (IS=1E-16     IBV=100U  BV=10      VJ=0.3)
.MODEL  Pfor       PNP(IS=5E-15     BF=1.10   CJE=10p    CJC=5p     TF=0.3U)
.MODEL  Nfor       NPN(IS=1E-12     ISE=1E-9  BF=10.0    RC=0.45    CJE=100p    CJC=5p      TF=0.3U)
.ENDS

.SUBCKT S4004VS2   1  2             3
*       TERMINALS: A  G             K
Qpnp    6          4  1             Pfor      OFF
Qnpn    4          6  5             Nfor      OFF
Rfor    6          4  5G
Rrev    1          4  5G
Rshort  6          5  1MEG
Rlat    2          6  9.09
Ron     3          5  154.6m
Dfor    6          4  Zbrk
Drev    1          4  Zbrk
Dgate   6          5  Zgate
.MODEL  Zbrk       D  (IS=3.2E-16   IBV=100U  BV=400)
.MODEL  Zgate      D  (IS=1E-16     IBV=100U  BV=10      VJ=0.3)
.MODEL  Pfor       PNP(IS=5E-15     BF=1.10   CJE=10p    CJC=5p     TF=0.3U)
.MODEL  Nfor       NPN(IS=1E-12     ISE=1E-9  BF=10.0    RC=0.45    CJE=100p    CJC=5p      TF=0.3U)
.ENDS

.SUBCKT S6004DS2   1  2             3
*       TERMINALS: A  G             K
Qpnp    6          4  1             Pfor      OFF
Qnpn    4          6  5             Nfor      OFF
Rfor    6          4  5G
Rrev    1          4  5G
Rshort  6          5  1MEG
Rlat    2          6  9.09
Ron     3          5  154.6m
Dfor    6          4  Zbrk
Drev    1          4  Zbrk
Dgate   6          5  Zgate
.MODEL  Zbrk       D  (IS=3.2E-16   IBV=100U  BV=600)
.MODEL  Zgate      D  (IS=1E-16     IBV=100U  BV=10      VJ=0.3)
.MODEL  Pfor       PNP(IS=5E-15     BF=1.10   CJE=10p    CJC=5p     TF=0.3U)
.MODEL  Nfor       NPN(IS=1E-12     ISE=1E-9  BF=10.0    RC=0.45    CJE=100p    CJC=5p      TF=0.3U)
.ENDS

.SUBCKT S6004VS2   1  2             3
*       TERMINALS: A  G             K
Qpnp    6          4  1             Pfor      OFF
Qnpn    4          6  5             Nfor      OFF
Rfor    6          4  5G
Rrev    1          4  5G
Rshort  6          5  1MEG
Rlat    2          6  9.09
Ron     3          5  154.6m
Dfor    6          4  Zbrk
Drev    1          4  Zbrk
Dgate   6          5  Zgate
.MODEL  Zbrk       D  (IS=3.2E-16   IBV=100U  BV=600)
.MODEL  Zgate      D  (IS=1E-16     IBV=100U  BV=10      VJ=0.3)
.MODEL  Pfor       PNP(IS=5E-15     BF=1.10   CJE=10p    CJC=5p     TF=0.3U)
.MODEL  Nfor       NPN(IS=1E-12     ISE=1E-9  BF=10.0    RC=0.45    CJE=100p    CJC=5p      TF=0.3U)
.ENDS

**********************************
**********************************
**
** Littelfuse, LP
** SCR SPICE Models
** Sxx06xSx-Sxx06x
**
** T. Chenoski
** Irving Technical Center
**
** A 06/14/08
**
**********************************
**********************************
.SUBCKT S4006RS2   1  2             3
*       TERMINALS: A  G             K
Qpnp    6          4  1             Pfor      OFF
Qnpn    4          6  5             Nfor      OFF
Rfor    6          4  2G
Rrev    1          4  2G
Rshort  6          5  1MEG
Rlat    2          6  9.09
Ron     3          5  56.3m
Dfor    6          4  Zbrk
Drev    1          4  Zbrk
Dgate   6          5  Zgate
.MODEL  Zbrk       D  (IS=3.2E-16   IBV=100U  BV=400)
.MODEL  Zgate      D  (IS=1E-16     IBV=100U  BV=10      VJ=0.3)
.MODEL  Pfor       PNP(IS=5E-15     BF=1.10   CJE=30p    CJC=16p    TF=0.3U)
.MODEL  Nfor       NPN(IS=1E-12     ISE=1E-9  BF=10.0    RC=0.45    CJE=300p    CJC=16p     TF=0.3U)
.ENDS

.SUBCKT S4006LS2   1  2             3
*       TERMINALS: A  G             K
Qpnp    6          4  1             Pfor      OFF
Qnpn    4          6  5             Nfor      OFF
Rfor    6          4  2G
Rrev    1          4  2G
Rshort  6          5  1MEG
Rlat    2          6  9.09
Ron     3          5  56.3m
Dfor    6          4  Zbrk
Drev    1          4  Zbrk
Dgate   6          5  Zgate
.MODEL  Zbrk       D  (IS=3.2E-16   IBV=100U  BV=400)
.MODEL  Zgate      D  (IS=1E-16     IBV=100U  BV=10      VJ=0.3)
.MODEL  Pfor       PNP(IS=5E-15     BF=1.10   CJE=30p    CJC=16p    TF=0.3U)
.MODEL  Nfor       NPN(IS=1E-12     ISE=1E-9  BF=10.0    RC=0.45    CJE=300p    CJC=16p     TF=0.3U)
.ENDS

.SUBCKT S4006VS2   1  2             3
*       TERMINALS: A  G             K
Qpnp    6          4  1             Pfor      OFF
Qnpn    4          6  5             Nfor      OFF
Rfor    6          4  2G
Rrev    1          4  2G
Rshort  6          5  1MEG
Rlat    2          6  9.09
Ron     3          5  56.3m
Dfor    6          4  Zbrk
Drev    1          4  Zbrk
Dgate   6          5  Zgate
.MODEL  Zbrk       D  (IS=3.2E-16   IBV=100U  BV=400)
.MODEL  Zgate      D  (IS=1E-16     IBV=100U  BV=10      VJ=0.3)
.MODEL  Pfor       PNP(IS=5E-15     BF=1.10   CJE=30p    CJC=16p    TF=0.3U)
.MODEL  Nfor       NPN(IS=1E-12     ISE=1E-9  BF=10.0    RC=0.45    CJE=300p    CJC=16p     TF=0.3U)
.ENDS

.SUBCKT S4006DS2   1  2             3
*       TERMINALS: A  G             K
Qpnp    6          4  1             Pfor      OFF
Qnpn    4          6  5             Nfor      OFF
Rfor    6          4  2G
Rrev    1          4  2G
Rshort  6          5  1MEG
Rlat    2          6  9.09
Ron     3          5  56.3m
Dfor    6          4  Zbrk
Drev    1          4  Zbrk
Dgate   6          5  Zgate
.MODEL  Zbrk       D  (IS=3.2E-16   IBV=100U  BV=400)
.MODEL  Zgate      D  (IS=1E-16     IBV=100U  BV=10      VJ=0.3)
.MODEL  Pfor       PNP(IS=5E-15     BF=1.10   CJE=30p    CJC=16p    TF=0.3U)
.MODEL  Nfor       NPN(IS=1E-12     ISE=1E-9  BF=10.0    RC=0.45    CJE=300p    CJC=16p     TF=0.3U)
.ENDS

.SUBCKT S4006RS3   1  2             3
*       TERMINALS: A  G             K
Qpnp    6          4  1             Pfor      OFF
Qnpn    4          6  5             Nfor      OFF
Rfor    6          4  2G
Rrev    1          4  2G
Rshort  6          5  1MEG
Rlat    2          6  9.09
Ron     3          5  56.3m
Dfor    6          4  Zbrk
Drev    1          4  Zbrk
Dgate   6          5  Zgate
.MODEL  Zbrk       D  (IS=3.2E-16   IBV=100U  BV=400)
.MODEL  Zgate      D  (IS=1E-16     IBV=100U  BV=10      VJ=0.3)
.MODEL  Pfor       PNP(IS=5E-15     BF=1.10   CJE=30p    CJC=16p    TF=0.3U)
.MODEL  Nfor       NPN(IS=1E-12     ISE=1E-9  BF=10.0    RC=0.45    CJE=300p    CJC=16p     TF=0.3U)
.ENDS

.SUBCKT S4006LS3   1  2             3
*       TERMINALS: A  G             K
Qpnp    6          4  1             Pfor      OFF
Qnpn    4          6  5             Nfor      OFF
Rfor    6          4  2G
Rrev    1          4  2G
Rshort  6          5  1MEG
Rlat    2          6  9.09
Ron     3          5  56.3m
Dfor    6          4  Zbrk
Drev    1          4  Zbrk
Dgate   6          5  Zgate
.MODEL  Zbrk       D  (IS=3.2E-16   IBV=100U  BV=400)
.MODEL  Zgate      D  (IS=1E-16     IBV=100U  BV=10      VJ=0.3)
.MODEL  Pfor       PNP(IS=5E-15     BF=1.10   CJE=30p    CJC=16p    TF=0.3U)
.MODEL  Nfor       NPN(IS=1E-12     ISE=1E-9  BF=10.0    RC=0.45    CJE=300p    CJC=16p     TF=0.3U)
.ENDS

.SUBCKT S4006VS3   1  2             3
*       TERMINALS: A  G             K
Qpnp    6          4  1             Pfor      OFF
Qnpn    4          6  5             Nfor      OFF
Rfor    6          4  2G
Rrev    1          4  2G
Rshort  6          5  1MEG
Rlat    2          6  9.09
Ron     3          5  56.3m
Dfor    6          4  Zbrk
Drev    1          4  Zbrk
Dgate   6          5  Zgate
.MODEL  Zbrk       D  (IS=3.2E-16   IBV=100U  BV=400)
.MODEL  Zgate      D  (IS=1E-16     IBV=100U  BV=10      VJ=0.3)
.MODEL  Pfor       PNP(IS=5E-15     BF=1.10   CJE=30p    CJC=16p    TF=0.3U)
.MODEL  Nfor       NPN(IS=1E-12     ISE=1E-9  BF=10.0    RC=0.45    CJE=300p    CJC=16p     TF=0.3U)
.ENDS

.SUBCKT S4006DS3   1  2             3
*       TERMINALS: A  G             K
Qpnp    6          4  1             Pfor      OFF
Qnpn    4          6  5             Nfor      OFF
Rfor    6          4  2G
Rrev    1          4  2G
Rshort  6          5  1MEG
Rlat    2          6  9.09
Ron     3          5  56.3m
Dfor    6          4  Zbrk
Drev    1          4  Zbrk
Dgate   6          5  Zgate
.MODEL  Zbrk       D  (IS=3.2E-16   IBV=100U  BV=400)
.MODEL  Zgate      D  (IS=1E-16     IBV=100U  BV=10      VJ=0.3)
.MODEL  Pfor       PNP(IS=5E-15     BF=1.10   CJE=30p    CJC=16p    TF=0.3U)
.MODEL  Nfor       NPN(IS=1E-12     ISE=1E-9  BF=10.0    RC=0.45    CJE=300p    CJC=16p     TF=0.3U)
.ENDS

.SUBCKT S6006RS2   1  2             3
*       TERMINALS: A  G             K
Qpnp    6          4  1             Pfor      OFF
Qnpn    4          6  5             Nfor      OFF
Rfor    6          4  2G
Rrev    1          4  2G
Rshort  6          5  1MEG
Rlat    2          6  9.09
Ron     3          5  56.3m
Dfor    6          4  Zbrk
Drev    1          4  Zbrk
Dgate   6          5  Zgate
.MODEL  Zbrk       D  (IS=3.2E-16   IBV=100U  BV=600)
.MODEL  Zgate      D  (IS=1E-16     IBV=100U  BV=10      VJ=0.3)
.MODEL  Pfor       PNP(IS=5E-15     BF=1.10   CJE=30p    CJC=16p    TF=0.3U)
.MODEL  Nfor       NPN(IS=1E-12     ISE=1E-9  BF=10.0    RC=0.45    CJE=300p    CJC=16p     TF=0.3U)
.ENDS

.SUBCKT S6006LS2   1  2             3
*       TERMINALS: A  G             K
Qpnp    6          4  1             Pfor      OFF
Qnpn    4          6  5             Nfor      OFF
Rfor    6          4  2G
Rrev    1          4  2G
Rshort  6          5  1MEG
Rlat    2          6  9.09
Ron     3          5  56.3m
Dfor    6          4  Zbrk
Drev    1          4  Zbrk
Dgate   6          5  Zgate
.MODEL  Zbrk       D  (IS=3.2E-16   IBV=100U  BV=600)
.MODEL  Zgate      D  (IS=1E-16     IBV=100U  BV=10      VJ=0.3)
.MODEL  Pfor       PNP(IS=5E-15     BF=1.10   CJE=30p    CJC=16p    TF=0.3U)
.MODEL  Nfor       NPN(IS=1E-12     ISE=1E-9  BF=10.0    RC=0.45    CJE=300p    CJC=16p     TF=0.3U)
.ENDS

.SUBCKT S6006VS2   1  2             3
*       TERMINALS: A  G             K
Qpnp    6          4  1             Pfor      OFF
Qnpn    4          6  5             Nfor      OFF
Rfor    6          4  2G
Rrev    1          4  2G
Rshort  6          5  1MEG
Rlat    2          6  9.09
Ron     3          5  56.3m
Dfor    6          4  Zbrk
Drev    1          4  Zbrk
Dgate   6          5  Zgate
.MODEL  Zbrk       D  (IS=3.2E-16   IBV=100U  BV=600)
.MODEL  Zgate      D  (IS=1E-16     IBV=100U  BV=10      VJ=0.3)
.MODEL  Pfor       PNP(IS=5E-15     BF=1.10   CJE=30p    CJC=16p    TF=0.3U)
.MODEL  Nfor       NPN(IS=1E-12     ISE=1E-9  BF=10.0    RC=0.45    CJE=300p    CJC=16p     TF=0.3U)
.ENDS

.SUBCKT S6006DS2   1  2             3
*       TERMINALS: A  G             K
Qpnp    6          4  1             Pfor      OFF
Qnpn    4          6  5             Nfor      OFF
Rfor    6          4  2G
Rrev    1          4  2G
Rshort  6          5  1MEG
Rlat    2          6  9.09
Ron     3          5  56.3m
Dfor    6          4  Zbrk
Drev    1          4  Zbrk
Dgate   6          5  Zgate
.MODEL  Zbrk       D  (IS=3.2E-16   IBV=100U  BV=600)
.MODEL  Zgate      D  (IS=1E-16     IBV=100U  BV=10      VJ=0.3)
.MODEL  Pfor       PNP(IS=5E-15     BF=1.10   CJE=30p    CJC=16p    TF=0.3U)
.MODEL  Nfor       NPN(IS=1E-12     ISE=1E-9  BF=10.0    RC=0.45    CJE=300p    CJC=16p     TF=0.3U)
.ENDS

.SUBCKT S6006RS3   1  2             3
*       TERMINALS: A  G             K
Qpnp    6          4  1             Pfor      OFF
Qnpn    4          6  5             Nfor      OFF
Rfor    6          4  2G
Rrev    1          4  2G
Rshort  6          5  1MEG
Rlat    2          6  9.09
Ron     3          5  56.3m
Dfor    6          4  Zbrk
Drev    1          4  Zbrk
Dgate   6          5  Zgate
.MODEL  Zbrk       D  (IS=3.2E-16   IBV=100U  BV=600)
.MODEL  Zgate      D  (IS=1E-16     IBV=100U  BV=10      VJ=0.3)
.MODEL  Pfor       PNP(IS=5E-15     BF=1.10   CJE=30p    CJC=16p    TF=0.3U)
.MODEL  Nfor       NPN(IS=1E-12     ISE=1E-9  BF=10.0    RC=0.45    CJE=300p    CJC=16p     TF=0.3U)
.ENDS

.SUBCKT S6006LS3   1  2             3
*       TERMINALS: A  G             K
Qpnp    6          4  1             Pfor      OFF
Qnpn    4          6  5             Nfor      OFF
Rfor    6          4  2G
Rrev    1          4  2G
Rshort  6          5  1MEG
Rlat    2          6  9.09
Ron     3          5  56.3m
Dfor    6          4  Zbrk
Drev    1          4  Zbrk
Dgate   6          5  Zgate
.MODEL  Zbrk       D  (IS=3.2E-16   IBV=100U  BV=600)
.MODEL  Zgate      D  (IS=1E-16     IBV=100U  BV=10      VJ=0.3)
.MODEL  Pfor       PNP(IS=5E-15     BF=1.10   CJE=30p    CJC=16p    TF=0.3U)
.MODEL  Nfor       NPN(IS=1E-12     ISE=1E-9  BF=10.0    RC=0.45    CJE=300p    CJC=16p     TF=0.3U)
.ENDS

.SUBCKT S6006VS3   1  2             3
*       TERMINALS: A  G             K
Qpnp    6          4  1             Pfor      OFF
Qnpn    4          6  5             Nfor      OFF
Rfor    6          4  2G
Rrev    1          4  2G
Rshort  6          5  1MEG
Rlat    2          6  9.09
Ron     3          5  56.3m
Dfor    6          4  Zbrk
Drev    1          4  Zbrk
Dgate   6          5  Zgate
.MODEL  Zbrk       D  (IS=3.2E-16   IBV=100U  BV=600)
.MODEL  Zgate      D  (IS=1E-16     IBV=100U  BV=10      VJ=0.3)
.MODEL  Pfor       PNP(IS=5E-15     BF=1.10   CJE=30p    CJC=16p    TF=0.3U)
.MODEL  Nfor       NPN(IS=1E-12     ISE=1E-9  BF=10.0    RC=0.45    CJE=300p    CJC=16p     TF=0.3U)
.ENDS

.SUBCKT S6006DS3   1  2             3
*       TERMINALS: A  G             K
Qpnp    6          4  1             Pfor      OFF
Qnpn    4          6  5             Nfor      OFF
Rfor    6          4  2G
Rrev    1          4  2G
Rshort  6          5  1MEG
Rlat    2          6  9.09
Ron     3          5  56.3m
Dfor    6          4  Zbrk
Drev    1          4  Zbrk
Dgate   6          5  Zgate
.MODEL  Zbrk       D  (IS=3.2E-16   IBV=100U  BV=600)
.MODEL  Zgate      D  (IS=1E-16     IBV=100U  BV=10      VJ=0.3)
.MODEL  Pfor       PNP(IS=5E-15     BF=1.10   CJE=30p    CJC=16p    TF=0.3U)
.MODEL  Nfor       NPN(IS=1E-12     ISE=1E-9  BF=10.0    RC=0.45    CJE=300p    CJC=16p     TF=0.3U)
.ENDS

.SUBCKT S4006R     1  2             3
*       TERMINALS: A  G             K
Qpnp    6          4  1             Pfor      OFF
Qnpn    4          6  5             Nfor      OFF
Rfor    6          4  2G
Rrev    1          4  2G
Rshort  6          5  35
Rlat    2          6  2.64
Ron     3          5  56.3m
Dfor    6          4  Zbrk
Drev    1          4  Zbrk
Dgate   6          5  Zgate
.MODEL  Zbrk       D  (IS=10F       IBV=1U    BV=400)
.MODEL  Zgate      D  (IS=10F       IBV=100U  BV=10      VJ=0.3)
.MODEL  Pfor       PNP(IS=10P       BF=1.5    CJE=30p    CJC=16p    TF=0.3U)
.MODEL  Nfor       NPN(IS=10P       ISE=1E-9  BF=100.0   RC=13.6M   CJE=300p    CJC=16p     TF=0.3U)
.ENDS

.SUBCKT S4006L     1  2             3
*       TERMINALS: A  G             K
Qpnp    6          4  1             Pfor      OFF
Qnpn    4          6  5             Nfor      OFF
Rfor    6          4  2G
Rrev    1          4  2G
Rshort  6          5  35
Rlat    2          6  2.64
Ron     3          5  56.3m
Dfor    6          4  Zbrk
Drev    1          4  Zbrk
Dgate   6          5  Zgate
.MODEL  Zbrk       D  (IS=10F       IBV=1U    BV=400)
.MODEL  Zgate      D  (IS=10F       IBV=100U  BV=10      VJ=0.3)
.MODEL  Pfor       PNP(IS=10P       BF=1.5    CJE=30p    CJC=16p    TF=0.3U)
.MODEL  Nfor       NPN(IS=10P       ISE=1E-9  BF=100.0   RC=13.6M   CJE=300p    CJC=16p     TF=0.3U)
.ENDS

.SUBCKT S4006V     1  2             3
*       TERMINALS: A  G             K
Qpnp    6          4  1             Pfor      OFF
Qnpn    4          6  5             Nfor      OFF
Rfor    6          4  2G
Rrev    1          4  2G
Rshort  6          5  35
Rlat    2          6  2.64
Ron     3          5  56.3m
Dfor    6          4  Zbrk
Drev    1          4  Zbrk
Dgate   6          5  Zgate
.MODEL  Zbrk       D  (IS=10F       IBV=1U    BV=400)
.MODEL  Zgate      D  (IS=10F       IBV=100U  BV=10      VJ=0.3)
.MODEL  Pfor       PNP(IS=10P       BF=1.5    CJE=30p    CJC=16p    TF=0.3U)
.MODEL  Nfor       NPN(IS=10P       ISE=1E-9  BF=100.0   RC=13.6M   CJE=300p    CJC=16p     TF=0.3U)
.ENDS

.SUBCKT S4006D     1  2             3
*       TERMINALS: A  G             K
Qpnp    6          4  1             Pfor      OFF
Qnpn    4          6  5             Nfor      OFF
Rfor    6          4  2G
Rrev    1          4  2G
Rshort  6          5  35
Rlat    2          6  2.64
Ron     3          5  56.3m
Dfor    6          4  Zbrk
Drev    1          4  Zbrk
Dgate   6          5  Zgate
.MODEL  Zbrk       D  (IS=10F       IBV=1U    BV=400)
.MODEL  Zgate      D  (IS=10F       IBV=100U  BV=10      VJ=0.3)
.MODEL  Pfor       PNP(IS=10P       BF=1.5    CJE=30p    CJC=16p    TF=0.3U)
.MODEL  Nfor       NPN(IS=10P       ISE=1E-9  BF=100.0   RC=13.6M   CJE=300p    CJC=16p     TF=0.3U)
.ENDS

.SUBCKT S6006R     1  2             3
*       TERMINALS: A  G             K
Qpnp    6          4  1             Pfor      OFF
Qnpn    4          6  5             Nfor      OFF
Rfor    6          4  2G
Rrev    1          4  2G
Rshort  6          5  35
Rlat    2          6  2.64
Ron     3          5  56.3m
Dfor    6          4  Zbrk
Drev    1          4  Zbrk
Dgate   6          5  Zgate
.MODEL  Zbrk       D  (IS=10F       IBV=1U    BV=600)
.MODEL  Zgate      D  (IS=10F       IBV=100U  BV=10      VJ=0.3)
.MODEL  Pfor       PNP(IS=10P       BF=1.5    CJE=30p    CJC=16p    TF=0.3U)
.MODEL  Nfor       NPN(IS=10P       ISE=1E-9  BF=100.0   RC=13.6M   CJE=300p    CJC=16p     TF=0.3U)
.ENDS

.SUBCKT S6006L     1  2             3
*       TERMINALS: A  G             K
Qpnp    6          4  1             Pfor      OFF
Qnpn    4          6  5             Nfor      OFF
Rfor    6          4  2G
Rrev    1          4  2G
Rshort  6          5  35
Rlat    2          6  2.64
Ron     3          5  56.3m
Dfor    6          4  Zbrk
Drev    1          4  Zbrk
Dgate   6          5  Zgate
.MODEL  Zbrk       D  (IS=10F       IBV=1U    BV=600)
.MODEL  Zgate      D  (IS=10F       IBV=100U  BV=10      VJ=0.3)
.MODEL  Pfor       PNP(IS=10P       BF=1.5    CJE=30p    CJC=16p    TF=0.3U)
.MODEL  Nfor       NPN(IS=10P       ISE=1E-9  BF=100.0   RC=13.6M   CJE=300p    CJC=16p     TF=0.3U)
.ENDS

.SUBCKT S6006V     1  2             3
*       TERMINALS: A  G             K
Qpnp    6          4  1             Pfor      OFF
Qnpn    4          6  5             Nfor      OFF
Rfor    6          4  2G
Rrev    1          4  2G
Rshort  6          5  35
Rlat    2          6  2.64
Ron     3          5  56.3m
Dfor    6          4  Zbrk
Drev    1          4  Zbrk
Dgate   6          5  Zgate
.MODEL  Zbrk       D  (IS=10F       IBV=1U    BV=600)
.MODEL  Zgate      D  (IS=10F       IBV=100U  BV=10      VJ=0.3)
.MODEL  Pfor       PNP(IS=10P       BF=1.5    CJE=30p    CJC=16p    TF=0.3U)
.MODEL  Nfor       NPN(IS=10P       ISE=1E-9  BF=100.0   RC=13.6M   CJE=300p    CJC=16p     TF=0.3U)
.ENDS

.SUBCKT S6006D     1  2             3
*       TERMINALS: A  G             K
Qpnp    6          4  1             Pfor      OFF
Qnpn    4          6  5             Nfor      OFF
Rfor    6          4  2G
Rrev    1          4  2G
Rshort  6          5  35
Rlat    2          6  2.64
Ron     3          5  56.3m
Dfor    6          4  Zbrk
Drev    1          4  Zbrk
Dgate   6          5  Zgate
.MODEL  Zbrk       D  (IS=10F       IBV=1U    BV=600)
.MODEL  Zgate      D  (IS=10F       IBV=100U  BV=10      VJ=0.3)
.MODEL  Pfor       PNP(IS=10P       BF=1.5    CJE=30p    CJC=16p    TF=0.3U)
.MODEL  Nfor       NPN(IS=10P       ISE=1E-9  BF=100.0   RC=13.6M   CJE=300p    CJC=16p     TF=0.3U)
.ENDS

.SUBCKT S8006R     1  2             3
*       TERMINALS: A  G             K
Qpnp    6          4  1             Pfor      OFF
Qnpn    4          6  5             Nfor      OFF
Rfor    6          4  2G
Rrev    1          4  2G
Rshort  6          5  35
Rlat    2          6  2.64
Ron     3          5  56.3m
Dfor    6          4  Zbrk
Drev    1          4  Zbrk
Dgate   6          5  Zgate
.MODEL  Zbrk       D  (IS=10F       IBV=1U    BV=800)
.MODEL  Zgate      D  (IS=10F       IBV=100U  BV=10      VJ=0.3)
.MODEL  Pfor       PNP(IS=10P       BF=1.5    CJE=30p    CJC=16p    TF=0.3U)
.MODEL  Nfor       NPN(IS=10P       ISE=1E-9  BF=100.0   RC=13.6M   CJE=300p    CJC=16p     TF=0.3U)
.ENDS

.SUBCKT S8006L     1  2             3
*       TERMINALS: A  G             K
Qpnp    6          4  1             Pfor      OFF
Qnpn    4          6  5             Nfor      OFF
Rfor    6          4  2G
Rrev    1          4  2G
Rshort  6          5  35
Rlat    2          6  2.64
Ron     3          5  56.3m
Dfor    6          4  Zbrk
Drev    1          4  Zbrk
Dgate   6          5  Zgate
.MODEL  Zbrk       D  (IS=10F       IBV=1U    BV=800)
.MODEL  Zgate      D  (IS=10F       IBV=100U  BV=10      VJ=0.3)