.SUBCKT MCP6001 1 2 3 4 5
*               | | | | |
*               | | | | Output
*               | | | Negative Supply
*               | | Positive Supply
*               | Inverting Input
*               Non-inverting Input
*
********************************************************************************
* Software License Agreement                                                   *
*                                                                              *
* The software supplied herewith by Microchip Technology Incorporated (the     *
* "Company") is intended and supplied to you, the Company's customer, for use  *
* soley and exclusively on Microchip products.                                 *
*                                                                              *
* The software is owned by the Company and/or its supplier, and is protected   *
* under applicable copyright laws. All rights are reserved. Any use in         *
* violation of the foregoing restrictions may subject the user to criminal     *
* sanctions under applicable laws, as well as to civil liability for the       *
* breach of the terms and conditions of this license.                          *
*                                                                              *
* THIS SOFTWARE IS PROVIDED IN AN "AS IS" CONDITION. NO WARRANTIES, WHETHER    *
* EXPRESS, IMPLIED OR STATUTORY, INCLUDING, BUT NOT LIMITED TO, IMPLIED        *
* WARRANTIES OF MERCHANTABILITY AND FITNESS FOR A PARTICULAR PURPOSE APPLY TO  *
* THIS SOFTWARE. THE COMPANY SHALL NOT, IN ANY CIRCUMSTANCES, BE LIABLE FOR    *
* SPECIAL, INCIDENTAL OR CONSEQUENTIAL DAMAGES, FOR ANY REASON WHATSOEVER.     *
********************************************************************************
*
* Macromodel for the MCP6001/2/4 op amp family:
*   MCP6001, MCP6001R, MCP6001U, MCP6002, MCP6004
*
* Revision History:
*   REV A: 21-Jun-02, Created model
*   REV B: 16-Jul-02, Improved output stage
*   REV C: 03-Jan-03, Added MCP6001
*   REV D: 19-Aug-06, Added over temperature, improved output stage, 
*                     fixed overdrive recovery time
*   REV E: 27-Jul-07, Updated output impedance for better model stability w/cap load
*   REV F: 09-Jul-12, Added MCP6001R, MCP6001U
*
* Recommendations:
*   Use PSPICE (other simulators may require translation)
*   For a quick, effective design, use a combination of: data sheet
*     specs, bench testing, and simulations with this macromodel
*   For high impedance circuits, set GMIN=100F in .OPTIONS
*
* Supported:
*   Typical performance for temperature range (-40 to 125) degrees Celsius
*   DC, AC, Transient, and Noise analyses.
*   Most specs, including: offsets, DC PSRR, DC CMRR, input impedance,
*     open loop gain, voltage ranges, supply current, ... , etc.
*   Temperature effects for Ibias, Iquiescent, Iout short circuit 
*   current, Vsat on both rails, Slew Rate vs. Temp and P.S.
*
* Not Supported:
*   Some Variation in specs vs. Power Supply Voltage
*   Monte Carlo (Vos, Ib), Process variation
*   Distortion (detailed non-linear behavior)
*   Behavior outside normal operating region
*
* Input Stage
V10  3 10 -500M
R10 10 11 6.90K 
R11 10 12 6.90K 
C11 11 12 0.2p
C12 1  0 6.00P 
E12 71 14 POLY(4) 20 0 21 0 26 0 27 0   1.00M 20.1 20.1 1 1
G12 1 0 62 0 1m 
M12 11 14 15 15 NMI L=2.00U W=42.0U
M14 12  2 15 15 NMI L=2.00U W=42.0U
G14 2 0 62 0 1m 
C14  2  0 6.00P 
I15 15  4 50.0U
V16 16  4 -300M
GD16 16 1 TABLE {V(16,1)} ((-100,-1p)(0,0)(1m,1n)(2m,1m)(3m,1)) 
V13  3 13 -300M
GD13 2 13 TABLE {V(2,13)} ((-100,-1p)(0,0)(1m,1n)(2m,1m)(3m,1)) 
R70 1 0 20.6T  
R71 2 0 20.6T 
R72 1 2 20T 
I80 1 2 0.5p
*
* Noise, PSRR, and CMRR
I20 21 20 423U
D20 20  0 DN1
D21  0 21 DN1
G26  0 26 POLY(1) 3 4   110U -49U
R26 26  0 1
G27  0 27 POLY(2) 1 0 2 0   -440U 39.7U 39.7U
R27 27  0 1
*
* Open Loop Gain, Slew Rate
G30  0 30 POLY(1) 12 11   0 1
R30 30  0 1K
G31  0 31 POLY(1) 3 4 86 5.25
R31 31  0 1 TC=2.8m
GD31 30 31 TABLE {V(30,31)} ((-11,-1)(-10,-10n)(0,0)(1m,1000))
G32 32  0 POLY(1) 3 4 113.7 3.5
R32 32  0 1 TC=2.65m
GD32 30 32 TABLE {V(30,32)} ((-1m,-1000)(0,0)(10,10n)(11,1))
G33 0 33 30 0 1m
R33 33 0 1k
G34  0 34 33 0 425M
R34  34 0 1K
C34  34 0 74U
G37  0 37 34 0 1m
R37  37 0 1K
C37  37 0 41.6P 
G38  0 38 37 0 1m
R38  39 0 1K
L38  38 39 100U
E38  35 0 38 0 1
G35 33 0 TABLE {V(35,3)} ((-1,-1n)(0,0)(16,1n)(16.1,1))
G36 33 0 TABLE {V(35,4)} ((-16.1,-1)(-16,-1n)(0,0)(1,1n))
*
* Output Stage 
R80 50 0 100MEG
G50 0 50 57 96 2
R58 57  96 0.50
R57 57  0 750
C58  5  0 2.00P
G57  0 57 POLY(3) 3 0 4 0 35 0   0 0.67M 0.67M 1.5M
GD55 55 57 TABLE {V(55,57)} ((-2m,-1)(-1m,-1m)(0,0)(10,1n))
GD56 57 56 TABLE {V(57,56)} ((-2m,-1)(-1m,-1m)(0,0)(10,1n))
E55 55  0 POLY(2) 3 0 51 0 -0.7m 1 -40.0M
E56 56  0 POLY(2) 4 0 52 0 1.2m 1 -37.0M
R51 51 0 1k
R52 52 0 1k
GD51 50 51 TABLE {V(50,51)} ((-10,-1n)(0,0)(1m,1m)(2m,1))
GD52 50 52 TABLE {V(50,52)} ((-2m,-1)(-1m,-1m)(0,0)(10,1n)) 
G53  3  0 POLY(1) 51 0  -49U 1M
G54  0  4 POLY(1) 52 0  -49U -1M
*
* Current Limit 
G99 96 5 99 0 1 
R98 0 98 1 TC=-2.8M,2.63U 
G97 0 98 TABLE { V(96,5) } ((-11.0,-10.0M)(-1.00M,-9.9M)(0,0)(1.00M,9.9M)(11.0,10.0M)) 
E97 99 0 VALUE { V(98)*((V(3)-V(4))*359M + 310M)} 
D98 4 5 DESD 
D99 5 3 DESD 
*
* Temperature / Voltage Sensitive IQuiscent
R61 0 61 100 TC 3.11M 4.51U
G61 3 4 61 0 1
G60 0 61 TABLE {V(3, 4)} 
+ ((0,0)(900M,0.0106U)(1.00,0.20U)(1.3,0.63U)
+ (1.5,0.66U)(1.6,1.06U)(5.5,1.10U))
*
* Temp Sensitive offset voltage 
I73 0 70 DC 1uA 
R74 0 70 1 TC=2 
E75 1 71 70 0 1 
*
* Temp Sensistive IBias 
I62 0 62 DC 1uA 
R62 0 62 REXP 58.2u 
* Voltage on R62 used for G12, G14 in input stage
*
* Models
.MODEL NMI NMOS
.MODEL DESD  D   N=1 IS=1.00E-15 
.MODEL DL  D   N=1 IS=1F 
.MODEL DN1 D   IS=1P KF=146E-18 AF=1
.MODEL REXP RES TCE=10.1 
.ENDS MCP6001

.SUBCKT MCP601 1 2 3 4 5
*              | | | | |
*              | | | | Output
*              | | | Negative Supply
*              | | Positive Supply
*              | Inverting Input
*              Non-inverting Input
*
********************************************************************************
* Software License Agreement                                                   *
*                                                                              *
* The software supplied herewith by Microchip Technology Incorporated (the     *
* 'Company') is intended and supplied to you, the Company's customer, for use  *
* soley and exclusively on Microchip products.                                 *
*                                                                              *
* The software is owned by the Company and/or its supplier, and is protected   *
* under applicable copyright laws. All rights are reserved. Any use in         *
* violation of the foregoing restrictions may subject the user to criminal     *
* sanctions under applicable laws, as well as to civil liability for the       *
* breach of the terms and conditions of this license.                          *
*                                                                              *
* THIS SOFTWARE IS PROVIDED IN AN 'AS IS' CONDITION. NO WARRANTIES, WHETHER    *
* EXPRESS, IMPLIED OR STATUTORY, INCLUDING, BUT NOT LIMITED TO, IMPLIED        *
* WARRANTIES OF MERCHANTABILITY AND FITNESS FOR A PARTICULAR PURPOSE APPLY TO  *
* THIS SOFTWARE. THE COMPANY SHALL NOT, IN ANY CIRCUMSTANCES, BE LIABLE FOR    *
* SPECIAL, INCIDENTAL OR CONSEQUENTIAL DAMAGES, FOR ANY REASON WHATSOEVER.     *
********************************************************************************
*
* The following op-amps are covered by this model:
*      MCP601,MCP602,MCP603,MCP604
*
* Revision History:
*   REV A: 30-Jun-99, BCB (created model)
*   REV B: 10-Jul-99, BCB (corrected DC Iq)
*   REV C: 30-Nov-99, BCB (".subckt" on first line, moved L, W to model)
*   REV D: 17-Jul-02, KEB (improved model)
*   REV E: 27-Aug-06, HNV (added over temperature, improved output stage, 
*                         fixed overdrive recovery time)
*                         (MC_RQ, 27-Aug-06, Level 1.17) 	             
*       
* Recommendations:
*      Use PSPICE (other simulators may require translation)
*      For a quick, effective design, use a combination of: data sheet
*            specs, bench testing, and simulations with this macromodel
*      For high impedance circuits, set GMIN=100F in the .OPTIONS statement
*
* Supported:
*      Typical performance for temperature range (-40 to 125) degrees Celsius
*      DC, AC, Transient, and Noise analyses.
*      Most specs, including: offsets, DC PSRR, DC CMRR, input impedance,
*            open loop gain, voltage ranges, supply current, ... , etc.
*      Temperature effects for Ibias, Iquiescent, Iout short circuit 
*            current, Vsat on both rails, Slew Rate vs. Temp and P.S.
*
* Not Supported:
*      Chip select (MCP603)
*      Some Variation in specs vs. Power Supply Voltage
*      Monte Carlo (Vos, Ib),Process variation  
*      Distortion (detailed non-linear behavior)
*      Behavior outside normal operating region
*
* Input Stage	
V10  3 10 1.00	
R10 10 11 771K	 
R11 10 12 771K	
G10 10 11 10 11 129U	
G11 10 12 10 12 129U	
C11 11 12 2P
C12  1  0 6P	
E12 71 14 POLY(4) 20 0 21 0 26 0 27 0 1.00M 15 15 1 1	
G12 1 0 62 0 1m	
M12 11 14 15 15 NMI
G13 1 2 62 0 .015m 	
M14 12 2 15 15 NMI 	
G14 2 0 62 0 1m	
C14  2  0 6P	
I15 15 4 40.0U	
V16 16 4 -300M	
GD16 16 1 TABLE {V(16,1)} ((-100,-1p)(0,0)(1m,1u)(2m,10m)) 	
V13 3 13 1.2	
GD13 2 13 TABLE {V(2,13)} ((-100,-1p)(0,0)(1m,1u)(2m,10m)) 	
R71  1  0 20.0E12	
R72  2  0 20.0E12	
R73  1  2 20.0E12	
I80  1  2 400F	
*	
* Noise, PSRR, and CMRR	
I20 21 20 423U	
D20 20  0 DN1	
D21  0 21 DN1	
G26  0 26 POLY(2) 3 0 4 0   0.00 -50.1U -63.0U	
R26 26  0 1
E271 275 0 1 0 1
E272 276 0 2 0 1
R271 275 271 12k
R272 276 272 12k
R273 271 0 1k
R274 272 0 1k
C271 275 271 8.5p
C272 276 272 8.5p
G27  0 27 POLY(2) 271 0 272 0  -555U 100U 100U	
R27 27  0 1	
*	
* Open Loop Gain, Slew Rate	
G30  0 30 12 11 1	
R30 30  0 1.00K	
I31 0 31 DC 109.7	
R31 31  0 1 TC=-3.87M,-2.12U	
GD31 30 0 TABLE {V(30,31)} ((-100,-1n)(0,0)(1m,0.1)(2m,2))	
I32 32 0 DC 120	
R32 32  0 1 TC=-3.71M,-4.74U	
GD32 0 30 TABLE {V(30,32)} ((-2m,2)(-1m,0.1)(0,0)(100,-1n))	
G33  0 33 30 0 1m	
R33  33 0 1K	
G34  0 34 33 0 334M	
R34  34 0 1K	
C34  34 0 17.4U	
G37  0 37 34 0 1m	
R37  37 0 1K	
C37  37 0 27P
G38  0 38 37 0 1m	
R38  39 0 1K	
L38  38 39 44U
E38  35 0 38 0 1	
G35 33 0 TABLE {V(35,3)} ((-1,-1n)(0,0)(5,1n)(6,1))	
G36 33 0 TABLE {V(35,4)} ((-5,-1)(-4,-1n)(0,0)(1,1n))	
*	
* Output Stage	
R80 50 0 100MEG	
G50 0 50 57 96 2	
R58 57  96 0.50	
R57 57  0 500	
C58  5  0 2.00P	
G57  0 57 POLY(3) 3 0 4 0 35 0   0 0.2M 0.22M 2.00M	
GD55 55 57 TABLE {V(55,57)} ((-2m,-1)(-1m,-1m)(0,0)(10,1n))	
GD56 57 56 TABLE {V(57,56)} ((-2m,-1)(-1m,-1m)(0,0)(10,1n))	
E55 55  0 POLY(2) 3 0 51 0 -2.4M 1 -58.8M	
E56 56  0 POLY(2) 4 0 52 0 1.7M 1 -32.3M	
R51 51 0 1k	
R52 52 0 1k		
GD51 50 51 TABLE {V(50,51)} ((-10,-1n)(0,0)(1m,1m)(2m,1))		
GD52 50 52 TABLE {V(50,52)}  ((-2m,-1)(-1m,-1m)(0,0)(10,1n))		
G53  3  0 POLY(1) 51 0  -40.0U 1M		
G54  0  4 POLY(1) 52 0  -40.0U -1M		
*		
* Current Limit		
G99 96 5 99 0 1		
R98 0 98 1 TC=-4.33M,9.53U		
G97 0 98 TABLE { V(96,5) } ((-11.0,-15.0M)(-1.00M,-14.8M)(0,0)(1.00M,14.8M)(11.0,15.0M))		
E97 99 0 VALUE { V(98)*((V(3)-V(4))*233M + 183M)}		
D98 4 5 DESD		
D99 5 3 DESD		
*		
* Temperature / Voltage Sensitive IQuiscent		
R61 0 61 1 TC=-3.20M,-8.90U		
G61 3 4 61 0 1		
G60 0 61 TABLE {V(3, 4)} 		
+ ((0,0)(900M,0.1U)(1.1,10.0U)(1.3,40.0U)		
+ (1.6,60.0U)(2.5,200U)(5.5,220U))		
*		
* Temperature Sensistive offset voltage		
I73 0 70 DC 1uA		
R74 0 70 1 TC=2.5		
E75 1 71 70 0 1 		
*		
* Temp Sensistive IBias		
I62 0 62 DC 1uA		
R62 0 62 REXP 99U		
*		
* Models		
.MODEL NMI NMOS(L=2.00U W=42.0U KP=20.0U LEVEL=1 )		
.MODEL DESD  D   N=1 IS=1.00E-15		
.MODEL DN1 D   IS=1P KF=0.35F AF=1		
.MODEL REXP RES TCE= 9.1		
.ENDS MCP601		

.SUBCKT MCP6021 1 2 3 4 5
*               | | | | |
*               | | | | Output
*               | | | Negative Supply
*               | | Positive Supply
*               | Inverting Input
*               Non-inverting Input
*
********************************************************************************
* Software License Agreement                                                   *
*                                                                              *
* The software supplied herewith by Microchip Technology Incorporated (the     *
* 'Company') is intended and supplied to you, the Company's customer, for use  *
* soley and exclusively on Microchip products.                                 *
*                                                                              *
* The software is owned by the Company and/or its supplier, and is protected   *
* under applicable copyright laws. All rights are reserved. Any use in         *
* violation of the foregoing restrictions may subject the user to criminal     *
* sanctions under applicable laws, as well as to civil liability for the       *
* breach of the terms and conditions of this license.                          *
*                                                                              *
* THIS SOFTWARE IS PROVIDED IN AN 'AS IS' CONDITION. NO WARRANTIES, WHETHER    *
* EXPRESS, IMPLIED OR STATUTORY, INCLUDING, BUT NOT LIMITED TO, IMPLIED        *
* WARRANTIES OF MERCHANTABILITY AND FITNESS FOR A PARTICULAR PURPOSE APPLY TO  *
* THIS SOFTWARE. THE COMPANY SHALL NOT, IN ANY CIRCUMSTANCES, BE LIABLE FOR    *
* SPECIAL, INCIDENTAL OR CONSEQUENTIAL DAMAGES, FOR ANY REASON WHATSOEVER.     *
********************************************************************************
*
* The following op-amps are covered by this model:
*      MCP6021,MCP6021R,MCP6022,MCP6023,MCP6024
*
* Revision History:
*     REV A: 10-Feb-01, KEB (created model)
*     REV B: 27-Aug-06, HNV (added over temperature, improved output stage, 
*                            fixed overdrive recovery time)
*			    (MC_RQ, 27-Aug-06, Level 1.17)       
*
* Recommendations:
*      Use PSPICE (other simulators may require translation)
*      For a quick, effective design, use a combination of: data sheet
*            specs, bench testing, and simulations with this macromodel
*      For high impedance circuits, set GMIN=100F in the .OPTIONS statement
*
* Supported:
*      Typical performance for temperature range (-40 to 125) degrees Celsius
*      DC, AC, Transient, and Noise analyses.
*      Most specs, including: offsets, DC PSRR, DC CMRR, input impedance,
*            open loop gain, voltage ranges, supply current, ... , etc.
*      Temperature effects for Ibias, Iquiescent, Iout short circuit 
*            current, Vsat on both rails, Slew Rate vs. Temp and P.S.
*
* Not Supported:
*      Chip select (MCP6023)
*      Some Variation in specs vs. Power Supply Voltage
*      Monte Carlo (Vos, Ib), Process variation
*      Distortion (detailed non-linear behavior)
*      Behavior outside normal operating region
*
* Input Stage
V10  3 10 -500M
R10 10 11 690K
R11 10 12 690K
G10 10 11 10 11 288U
G11 10 12 10 12 288U
C11 11 12 0.2P
C12  1  0 6.00P
E12 71 14 POLY(4) 20 0 21 0 26 0 27 0   0 1 1 1 1
G12 1 0 62 0 1m
M12 11 14 15 15 NMI
G13 1 2 62 0 .08m 
M14 12 2 15 15 NMI 
G14 2 0 62 0 1m
C14  2  0 6.00P
I15 15 4 225.0U
V16 16 4 -300M
GD16 16 1 TABLE {V(16,1)} ((-100,-1p)(0,0)(1m,1u)(2m,1m)) 
V13 3 13 -300M
GD13 2 13 TABLE {V(2,13)} ((-100,-1p)(0,0)(1m,1u)(2m,1m)) 
R71  1  0 20.0E12
R72  2  0 20.0E12
R73  1  2 20.0E12
I80  1  2 500E-15
*
* Noise, PSRR, and CMRR
I20 21 20 423U
D20 20  0 DN1
D21  0 21 DN1
G26  0 26 POLY(2) 3 0 4 0   0.00 -31.6U -79.4U
R26 26  0 1
E271 275 0 1 0 1
E272 276 0 2 0 1
R271 275 271 37k
R272 276 272 37k
R273 271 0 1k
R274 272 0 1k
C271 275 271 3p
C272 276 272 3p
G27  0 27 POLY(2) 271 0 272 0  -327U 500U 500U
R27 27  0 1
*
* Open Loop Gain, Slew Rate
G30  0 30 12 11 1
R30 30  0 1.00K
G31 0 31 3 4 4
I31 0 31 DC 76.9
R31 31  0 1 TC=2.34M,-4.57U
GD31 30 0 TABLE {V(30,31)} ((-100,-1n)(0,0)(1m,0.1)(2m,2))
G32 32 0 3 4 10
I32 32 0 DC 65
R32 32  0 1 TC=1.80M,-3.97U
GD32 0 30 TABLE {V(30,32)} ((-2m,2)(-1m,0.1)(0,0)(100,-1n))
G33  0 33 30 0 1m
R33  33 0 1K
G34  0 34 33 0 1.00
R34  34 0 1K
C34  34 0 14U
G37  0 37 34 0 1m
R37  37 0 1K
C37  37 0 6P
G38  0 38 37 0 1m
R38  39 0 1K
L38  38 39 31U
E38  35 0 38 0 1
G35 33 0 TABLE {V(35,3)} ((-1,-1n)(0,0)(50.0,1n)(55.0,1))
G36 33 0 TABLE {V(35,4)} ((-55.0,-1)(-50.0,-1n)(0,0)(1,1n))
*
* Output Stage
R80 50 0 100MEG
G50 0 50 57 96 2
R58 57  96 0.50
R57 57  0 500
C58  5  0 2.00P
G57  0 57 POLY(3) 3 0 4 0 35 0   0 0.75M 0.8M 2.00M
GD55 55 57 TABLE {V(55,57)} ((-2m,-1)(-1m,-1m)(0,0)(10,1n))
GD56 57 56 TABLE {V(57,56)} ((-2m,-1)(-1m,-1m)(0,0)(10,1n))
E55 55  0 POLY(2) 3 0 51 0 -1.4M 1 -19.1M
E56 56  0 POLY(2) 4 0 52 0 3.5M 1 -19.0M
R51 51 0 1k
R52 52 0 1k
GD51 50 51 TABLE {V(50,51)} ((-10,-1n)(0,0)(1m,1m)(2m,1))
GD52 50 52 TABLE {V(50,52)}  ((-2m,-1)(-1m,-1m)(0,0)(10,1n))
G53  3  0 POLY(1) 51 0  -50.0U 1M
G54  0  4 POLY(1) 52 0  -50.0U -1M
*
* Current Limit
G99 96 5 99 0 1
R98 0 98 1 TC=3.18M,-842N
G97 0 98 TABLE { V(96,5) } ((-11.0,-23.0M)(-1.00M,-22.7M)(0,0)(1.00M,22.7M)(11.0,23.0M))
E97 99 0 VALUE { V(98)*((V(3)-V(4))*0.00 + 1.00)}
D98 4 5 DESD
D99 5 3 DESD
*
* Temperature / Voltage Sensitive IQuiscent
R61 0 61 1 TC=2.62M,-1.92U
G61 3 4 61 0 1
G60 0 61 TABLE {V(3, 4)} 
+ ((0,0)(900M,9.2U)(1.1,50U)(1.3,240U)
+ (2.1,870U)(2.2,900U)(5.5,980U))
*
* Temperature Sensistive offset voltage
I73 0 70 DC 1uA
R74 0 70 1 TC=3.5
E75 1 71 70 0 1 
*
* Temp Sensistive IBias
I62 0 62 DC 1uA
R62 0 62 REXP  245U
*
* Models
.MODEL NMI NMOS(L=2.00U W=42.0U KP=20.0U LEVEL=1 )
.MODEL DESD  D   N=1 IS=1.00E-15
.MODEL DN1 D   IS=1P KF=12.5F AF=1
.MODEL REXP RES TCE= 9.16
.ENDS MCP6021
.SUBCKT MCP6031  1 2 3 4 5
*                | | | | |
*                | | | | Output
*                | | | Negative Supply
*                | | Positive Supply
*                | Inverting Input
*                Non-inverting Input
*
********************************************************************************
* Software License Agreement                                                   *
*                                                                              *
* The software supplied herewith by Microchip Technology Incorporated (the     *
* 'Company') is intended and supplied to you, the Company's customer, for use  *
* soley and exclusively on Microchip products.                                 *
*                                                                              *
* The software is owned by the Company and/or its supplier, and is protected   *
* under applicable copyright laws. All rights are reserved. Any use in         *
* violation of the foregoing restrictions may subject the user to criminal     *
* sanctions under applicable laws, as well as to civil liability for the       *
* breach of the terms and conditions of this license.                          *
*                                                                              *
* THIS SOFTWARE IS PROVIDED IN AN 'AS IS' CONDITION. NO WARRANTIES, WHETHER    *
* EXPRESS, IMPLIED OR STATUTORY, INCLUDING, BUT NOT LIMITED TO, IMPLIED        *
* WARRANTIES OF MERCHANTABILITY AND FITNESS FOR A PARTICULAR PURPOSE APPLY TO  *
* THIS SOFTWARE. THE COMPANY SHALL NOT, IN ANY CIRCUMSTANCES, BE LIABLE FOR    *
* SPECIAL, INCIDENTAL OR CONSEQUENTIAL DAMAGES, FOR ANY REASON WHATSOEVER.     *
********************************************************************************
*
* The following op-amps are covered by this model:
*      MCP6031, MCP6032, MCP6033, MCP6034
*
* Revision History:
*      REV A: 02-Apr-07, Created model
*      REV B: 27-Jun-07, Modified output impedance at expense of comparator operation
*             to correct transient response with capacitive load
*
* Recommendations:
*      Use PSPICE (or SPICE 2G6; other simulators may require translation)
*      For a quick, effective design, use a combination of: data sheet
*            specs, bench testing, and simulations with this macromodel
*      For high impedance circuits, set GMIN=100F in the .OPTIONS statement
*
* Supported:
*      Typical performance for temperature range (-40 to 125) degrees Celsius
*      DC, AC, Transient, and Noise analyses.
*      Most specs, including: offsets, DC PSRR, DC CMRR, input impedance,
*            open loop gain, voltage ranges, supply current, ... , etc.
*      Temperature effects for Ibias, Iquiescent, Iout short circuit 
*            current, Vsat on both rails, Slew Rate vs. Temp and P.S.
*
* Not Supported:
*      Chip select (MCP6033)
*      Some Variation in specs vs. Power Supply Voltage
*      Monte Carlo (Vos, Ib), Process variation
*      Distortion (detailed non-linear behavior)
*      Behavior outside normal operating region
*
* Input Stage
V10  3 10 -500M
R10 10 11 2.18MEG
R11 10 12 2.18MEG
G10 10 11 10 11 45.8U
G11 10 12 10 12 45.8U
C11 11 12 65P
C12  1  0 6.00P
E12 71 14 POLY(6) 20 0 21 0 22 0 23 0 26 0 27 0 150U 6 6 28 28 1 1
G12 1 0 62 0 1m
G13 1 2 63 0 1u
M12 11 14 15 15 NMI 
M14 12 2 15 15 NMI 
G14 2 0 62 0 1m
C14  2  0 6.00P
I15 15 4 5.00U
V16 16 4 -300M
GD16 16 1 TABLE {V(16,1)} ((-100,-1p)(0,0)(1m,1u)(2m,1m)) 
V13 3 13 -300M
GD13 2 13 TABLE {V(2,13)} ((-100,-1p)(0,0)(1m,1u)(2m,1m)) 
R71  1  0 20.0E12
R72  2  0 20.0E12
R73  1  2 20.0E12
*
* Noise, PSRR, and CMRR
I20 21 20 423U
D20 20  0 DN1
D21  0 21 DN1
I22 22 23 1N
R22 22 0  1k
R23  0 23 1k
G26  0 26 POLY(2) 3 0 4 0   0.00 -116U -24U
R26 26  0 1
G27  0 27 POLY(2) 1 0 2 0  -38U 6.4U 6.4U
R27 27  0 1
*
* Open Loop Gain, Slew Rate
G30  0 30 12 11 1
R30 30  0 1.00K
G31 0 31 3 4 2.83
I31 0 31 DC 41.1
R31 31  0 1 TC=2.76M,-14.3U
GD31 30 0 TABLE {V(30,31)} ((-100,-1n)(0,0)(1m,0.1)(2m,2))
G32 32 0 3 4 433M
I32 32 0 DC 67.4
R32 32  0 1 TC=2.75M,-14.3U
GD32 0 30 TABLE {V(30,32)} ((-2m,2)(-1m,0.1)(0,0)(100,-1n))
G33  0 33 30 0 1m
R33  33 0 1K
G34  0 34 33 0 320M
R34  34 0 1K
C34  34 0 3.9M
G37  0 37 34 0 1m
R37  37 0 1K
C37  37 0 450N
G38  0 38 37 0 1m
R38  39 0 1K
L38  38 39 0.5
E38  35 0 38 0 1
G35 33 0 TABLE {V(35,3)} ((-1,-1n)(0,0)(2k,10m)(2.1k,5))
G36 33 0 TABLE {V(35,4)} ((-2.1k,-5)(-2k,-10m)(0,0)(1,1n))
*
* Output Stage
R80 50 0 100MEG
G50 0 50 57 96 2
R58 57  96 0.50
R57  57 0 72.8k
C58  5  0 2.00P
G57  0 572 POLY(3) 3 0 4 0 35 0   0 1M 0.8M 2M
R573 572 0 6.868m
G572 0 57 572 0 1
GD55 55 57 TABLE {V(55,57)} ((-2m,-1)(-1m,-1m)(0,0)(10,1n))
GD56 57 56 TABLE {V(57,56)} ((-2m,-1)(-1m,-1m)(0,0)(10,1n))
E55 55  0 POLY(2) 3 0 51 0 -1.1M 1 -99M
E56 56  0 POLY(2) 4 0 52 0  1.0M 1 -80.6M
R51 51 0 1k
R52 52 0 1k
GD51 50 51 TABLE {V(50,51)} ((-10,-1n)(0,0)(1m,1m)(2m,1))
GD52 50 52 TABLE {V(50,52)}  ((-2m,-1)(-1m,-1m)(0,0)(10,1n))
G53  3  0 POLY(1) 51 0  -5.00U 1M
G54  0  4 POLY(1) 52 0  -5.00U -1M
*
* Current Limit
G99 96 5 99 0 1
R98 0 98 1 TC=-2.98M,-3.42U
G97 0 98 TABLE { V(96,5) } ((-11.0,-9.2M)(-1.00M,-9.10M)(0,0)(1.00M,9.10M)(11.0,9.2M))
E97 99 0 VALUE { V(98)*((V(3)-V(4))*482M + -109M)}
D98 4 5 DESD
D99 5 3 DESD
*
* Temperature / Voltage Sensitive IQuiscent
R61 0 61 1 TC=2.48M,-13.2U
G61 3 4 61 0 1
G60 0 61 TABLE {V(3, 4)} 
+ ((0,0)(700M,7.65N)(1.3,752N)(1.5,754N)
+ (1.7,759N)(2.2,765N)(5.5,804N))
*
* Temperature Sensitive offset voltage
I73 0 70 DC 1uA
R74 0 70 1 TC=3.00
E75 1 71 70 0 1 
*
* Temp Sensistive IBias
I62 0 62 DC 1uA
R62 0 62 REXP  759.71875U
*
* Temp Sensistive Offset IBias
I63 0 63 DC 1uA
R63 0 63 350M TC=51.2M,1.76M
*
* Models
.MODEL NMI NMOS(L=2.00U W=42.0U KP=20.0U LEVEL=1 )
.MODEL DESD  D   N=1 IS=1.00E-15
.MODEL DN1 D   IS=1P KF=146E-18 AF=1
.MODEL REXP  RES TCE= 7.83773
.ENDS MCP6031
.SUBCKT MCP6031COMP 1 2 3 4 5
*                   | | | | |
*                   | | | | Output
*                   | | | Negative Supply
*                   | | Positive Supply
*                   | Inverting Input
*                   Non-inverting Input
*
********************************************************************************
* Software License Agreement                                                   *
*                                                                              *
* The software supplied herewith by Microchip Technology Incorporated (the     *
* 'Company') is intended and supplied to you, the Company's customer, for use  *
* soley and exclusively on Microchip products.                                 *
*                                                                              *
* The software is owned by the Company and/or its supplier, and is protected   *
* under applicable copyright laws. All rights are reserved. Any use in         *
* violation of the foregoing restrictions may subject the user to criminal     *
* sanctions under applicable laws, as well as to civil liability for the       *
* breach of the terms and conditions of this license.                          *
*                                                                              *
* THIS SOFTWARE IS PROVIDED IN AN 'AS IS' CONDITION. NO WARRANTIES, WHETHER    *
* EXPRESS, IMPLIED OR STATUTORY, INCLUDING, BUT NOT LIMITED TO, IMPLIED        *
* WARRANTIES OF MERCHANTABILITY AND FITNESS FOR A PARTICULAR PURPOSE APPLY TO  *
* THIS SOFTWARE. THE COMPANY SHALL NOT, IN ANY CIRCUMSTANCES, BE LIABLE FOR    *
* SPECIAL, INCIDENTAL OR CONSEQUENTIAL DAMAGES, FOR ANY REASON WHATSOEVER.     *
********************************************************************************
*
* The following op-amps are covered by this model:
*      MCP6031, MCP6032, MCP6033, MCP6034
*
* Revision History:
*      REV A: 02-Apr-07, created model
*      REV B: 27-Jun-07, Modified comparator operation at expense of output impedance
*             to create comparator specific model 
*
* Recommendations:
*      Use PSPICE (or SPICE 2G6; other simulators may require translation)
*      For a quick, effective design, use a combination of: data sheet
*            specs, bench testing, and simulations with this macromodel
*      For high impedance circuits, set GMIN=100F in the .OPTIONS statement
*
* Supported:
*      Typical performance for temperature range (-40 to 125) degrees Celsius
*      DC, AC, Transient, and Noise analyses.
*      Most specs, including: offsets, DC PSRR, DC CMRR, input impedance,
*            open loop gain, voltage ranges, supply current, ... , etc.
*      Temperature effects for Ibias, Iquiescent, Iout short circuit 
*            current, Vsat on both rails, Slew Rate vs. Temp and P.S.
*
* Not Supported:
*      Chip select (MCP6033)
*      Some Variation in specs vs. Power Supply Voltage
*      Monte Carlo (Vos, Ib), Process variation
*      Distortion (detailed non-linear behavior)
*      Behavior outside normal operating region
*
* Input Stage
V10  3 10 -500M
R10 10 11 2.18MEG
R11 10 12 2.18MEG
G10 10 11 10 11 45.8U
G11 10 12 10 12 45.8U
C11 11 12 140P
C12  1  0 6.00P
E12 71 14 POLY(6) 20 0 21 0 22 0 23 0 26 0 27 0 150U 6 6 28 28 1 1
G12 1 0 62 0 1m
G13 1 2 63 0 1u
M12 11 14 15 15 NMI 
M14 12 2 15 15 NMI 
G14 2 0 62 0 1m
C14  2  0 6.00P
I15 15 4 5.00U
V16 16 4 -300M
GD16 16 1 TABLE {V(16,1)} ((-100,-1p)(0,0)(1m,1u)(2m,1m)) 
V13 3 13 -300M
GD13 2 13 TABLE {V(2,13)} ((-100,-1p)(0,0)(1m,1u)(2m,1m)) 
R71  1  0 20.0E12
R72  2  0 20.0E12
R73  1  2 20.0E12
*
* Noise, PSRR, and CMRR
I20 21 20 423U
D20 20  0 DN1
D21  0 21 DN1
I22 22 23 1N
R22 22 0  1k
R23  0 23 1k
G26  0 26 POLY(2) 3 0 4 0   0.00 -116U -24U
R26 26  0 1
G27  0 27 POLY(2) 1 0 2 0  -38U 6.4U 6.4U
R27 27  0 1
*
* Open Loop Gain, Slew Rate
G30  0 30 12 11 1
R30 30  0 1.00K
G31 0 31 3 4 2.83
I31 0 31 DC 41.1
R31 31  0 1 TC=2.76M,-14.3U
GD31 30 0 TABLE {V(30,31)} ((-100,-1n)(0,0)(1m,0.1)(2m,2))
G32 32 0 3 4 433M
I32 32 0 DC 67.4
R32 32  0 1 TC=2.75M,-14.3U
GD32 0 30 TABLE {V(30,32)} ((-2m,2)(-1m,0.1)(0,0)(100,-1n))
G33  0 33 30 0 1m
R33  33 0 1K
G34  0 34 33 0 320M
R34  34 0 1K
C34  34 0 4M
G37  0 37 34 0 1m
R37  37 0 1K
C37  37 0 490N
G38  0 38 37 0 1m
R38  39 0 1K
L38  38 39 0.5
E38  35 0 38 0 1
G35 33 0 TABLE {V(35,3)} ((-1,-1n)(0,0)(14.5,10m)(14.6,5))
G36 33 0 TABLE {V(35,4)} ((-12.4,-5)(-12.3,-10m)(0,0)(1,1n))
*
* Output Stage
R80 50 0 100MEG
G50 0 50 57 96 2
R58 57  96 0.50
R57 57 0 500
C58  5  0 2.00P
G57  0 57 POLY(3) 3 0 4 0 35 0   0 1M .8M 2M
GD55 55 57 TABLE {V(55,57)} ((-2m,-1)(-1m,-1m)(0,0)(10,1n))
GD56 57 56 TABLE {V(57,56)} ((-2m,-1)(-1m,-1m)(0,0)(10,1n))
E55 55  0 POLY(2) 3 0 51 0 -1.1M 1 -99M
E56 56  0 POLY(2) 4 0 52 0  1.0M 1 -80.6M
R51 51 0 1k
R52 52 0 1k
GD51 50 51 TABLE {V(50,51)} ((-10,-1n)(0,0)(1m,1m)(2m,1))
GD52 50 52 TABLE {V(50,52)}  ((-2m,-1)(-1m,-1m)(0,0)(10,1n))
G53  3  0 POLY(1) 51 0  -5.00U 1M
G54  0  4 POLY(1) 52 0  -5.00U -1M
*
* Current Limit
G99 96 5 99 0 1
R98 0 98 1 TC=-2.98M,-3.42U
G97 0 98 TABLE { V(96,5) } ((-11.0,-9.2M)(-1.00M,-9.10M)(0,0)(1.00M,9.10M)(11.0,9.2M))
E97 99 0 VALUE { V(98)*((V(3)-V(4))*482M + -109M)}
D98 4 5 DESD
D99 5 3 DESD
*
* Temperature / Voltage Sensitive IQuiscent
R61 0 61 1 TC=2.48M,-13.2U
G61 3 4 61 0 1
G60 0 61 TABLE {V(3, 4)} 
+ ((0,0)(700M,7.65N)(1.3,752N)(1.5,754N)
+ (1.7,759N)(2.2,765N)(5.5,804N))
*
* Temperature Sensitive offset voltage
I73 0 70 DC 1uA
R74 0 70 1 TC=3.00
E75 1 71 70 0 1 
*
* Temp Sensistive IBias
I62 0 62 DC 1uA
R62 0 62 REXP  759.71875U
*
* Temp Sensistive Offset IBias
I63 0 63 DC 1uA
R63 0 63 350M TC=51.2M,1.76M
*
* Models
.MODEL NMI NMOS(L=2.00U W=42.0U KP=20.0U LEVEL=1 )
.MODEL DESD  D   N=1 IS=1.00E-15
.MODEL DN1 D   IS=1P KF=146E-18 AF=1
.MODEL REXP  RES TCE= 7.83773
.ENDS MCP6031COMP
.SUBCKT MCP6041 1 2 3 4 5
*               | | | | |
*               | | | | Output
*               | | | Negative Supply
*               | | Positive Supply
*               | Inverting Input
*               Non-inverting Input
*
********************************************************************************
* Software License Agreement                                                   *
*                                                                              *
* The software supplied herewith by Microchip Technology Incorporated (the     *