*2N6661 MODEL
*  
.MODEL 2N6661   NMOS (LEVEL=3   RS=0.36            NSUB=1.0E15  
+DELTA=0.1      KAPPA=0.0506    TPG=1              CGDO=6.343E-10 
+RD=0.43        VTO=1.600       VMAX=1.0E7         ETA=0.0223089 
+NFS=6.6E10     TOX=1.0E-7      LD=1.698E-9        UO=862.425
+XJ=6.4666E-7   THETA=1.0E-5    CGSO=9.09E-9       L=2.5E-6
+W=5.0E-3)  

* * AN0116 MODEL
*    
.MODEL AN0116   NMOS (LEVEL=3   RS=2.25            NSUB=1.0E14  
+DELTA=0.1      KAPPA=0.0506    TPG=1              CGDO=3.1716E-9 
+RD=3.239       VTO=2.00        VMAX=1.0E7         ETA=0.0223089 
+NFS=6.6E10     TOX=1.1E-7      LD=1.698E-9        UO=862.425
+XJ=6.4666E-7   THETA=1.0E-5    CGSO=27E-9         L=4.0E-6
+W=270E-6)  

** AN0120 MODEL
*    
.MODEL AN0120   NMOS (LEVEL=3   RS=2.25            NSUB=1.0E14  
+DELTA=0.1      KAPPA=0.0506    TPG=1              CGDO=3.1716E-9 
+RD=3.239       VTO=2.00        VMAX=1.0E7         ETA=0.0223089 
+NFS=6.6E10     TOX=1.1E-7      LD=1.698E-9        UO=862.425
+XJ=6.4666E-7   THETA=1.0E-5    CGSO=27E-9         L=4.0E-6
+W=270E-6)  

* AN0130 MODEL
*    
.MODEL AN0130   NMOS (LEVEL=3   RS=2.25            NSUB=1.0E14  
+DELTA=0.1      KAPPA=0.0506    TPG=1              CGDO=3.1716E-9 
+RD=3.239       VTO=2.00        VMAX=1.0E7         ETA=0.0223089 
+NFS=6.6E10     TOX=1.1E-7      LD=1.698E-9        UO=862.425
+XJ=6.4666E-7   THETA=1.0E-5    CGSO=27E-9         L=4.0E-6
+W=270E-6)  

** AN0132 MODEL
*    
.MODEL AN0132   NMOS (LEVEL=3   RS=2.25            NSUB=1.0E14  
+DELTA=0.1      KAPPA=0.0506    TPG=1              CGDO=3.1716E-9 
+RD=3.239       VTO=2.00        VMAX=1.0E7         ETA=0.0223089 
+NFS=6.6E10     TOX=1.1E-7      LD=1.698E-9        UO=862.425
+XJ=6.4666E-7   THETA=1.0E-5    CGSO=27E-9         L=4.0E-6
+W=270E-6)  

** AN0140 MODEL
*    
.MODEL AN0140   NMOS (LEVEL=3   RS=2.25            NSUB=1.0E14  
+DELTA=0.1      KAPPA=0.0506    TPG=1              CGDO=3.1716E-9 
+RD=3.239       VTO=2.00        VMAX=1.0E7         ETA=0.0223089 
+NFS=6.6E10     TOX=1.1E-7      LD=1.698E-9        UO=862.425
+XJ=6.4666E-7   THETA=1.0E-5    CGSO=27E-9         L=4.0E-6
+W=270E-6)  

**AP0116 MODEL
*    
.MODEL AP0116   PMOS (LEVEL=3   RS=14.35            NSUB=1.5E14  
+DELTA=0.1      KAPPA=0.0506    TPG=-1             CGDO=3.1716E-9 
+RD=6.239       VTO=-3.50       VMAX=1.0E7         ETA=0.0223089 
+NFS=6.6E10     TOX=1.1E-7      LD=1.698E-9        UO=862.425
+XJ=6.4666E-7   THETA=1.0E-5    CGSO=27E-9         L=4.0E-6
+W=270E-6)  

* *AP0120 MODEL
*    
.MODEL AP0120   PMOS (LEVEL=3   RS=14.35            NSUB=1.5E14  
+DELTA=0.1      KAPPA=0.0506    TPG=-1             CGDO=3.1716E-9 
+RD=6.239       VTO=-3.50       VMAX=1.0E7         ETA=0.0223089 
+NFS=6.6E10     TOX=1.1E-7      LD=1.698E-9        UO=862.425
+XJ=6.4666E-7   THETA=1.0E-5    CGSO=27E-9         L=4.0E-6
+W=270E-6)  

**AP0130 MODEL
*    
.MODEL AP0130   PMOS (LEVEL=3   RS=14.35            NSUB=1.5E14  
+DELTA=0.1      KAPPA=0.0506    TPG=-1             CGDO=3.1716E-9 
+RD=6.239       VTO=-3.50       VMAX=1.0E7         ETA=0.0223089 
+NFS=6.6E10     TOX=1.1E-7      LD=1.698E-9        UO=862.425
+XJ=6.4666E-7   THETA=1.0E-5    CGSO=27E-9         L=4.0E-6
+W=270E-6)  

**
*AP0132 MODEL
*    
.MODEL AP0132   PMOS (LEVEL=3   RS=14.35            NSUB=1.5E14  
+DELTA=0.1      KAPPA=0.0506    TPG=-1             CGDO=3.1716E-9 
+RD=6.239       VTO=-3.50       VMAX=1.0E7         ETA=0.0223089 
+NFS=6.6E10     TOX=1.1E-7      LD=1.698E-9        UO=862.425
+XJ=6.4666E-7   THETA=1.0E-5    CGSO=27E-9         L=4.0E-6
+W=270E-6)  

**
*AP0140 MODEL
*    
.MODEL AP0140   PMOS (LEVEL=3   RS=14.35            NSUB=1.5E14  
+DELTA=0.1      KAPPA=0.0506    TPG=-1             CGDO=3.1716E-9 
+RD=6.239       VTO=-3.50       VMAX=1.0E7         ETA=0.0223089 
+NFS=6.6E10     TOX=1.1E-7      LD=1.698E-9        UO=862.425
+XJ=6.4666E-7   THETA=1.0E-5    CGSO=27E-9         L=4.0E-6
+W=270E-6)  

**DN2530 MODEL
*  
.MODEL DN2530   NMOS (LEVEL=3   RS=0.25            NSUB=5.0E14  
+DELTA=0.1      KAPPA=0.20      TPG=1              CGDO=3.1716E-10 
+RD=7.0         VTO=-2.20       VMAX=1.0E7         ETA=0.0223089 
+NFS=6.6E10     TOX=750E-10     LD=1.698E-9        UO=862.425
+XJ=6.4666E-7   THETA=1.0E-5    CGSO=2.50E-9       L=3.0E-6
+W=59E-3        KP=12E-6)  

* *DN2535 MODEL
*  
.MODEL DN2535   NMOS (LEVEL=3   RS=1.05            NSUB=5.0E14  
+DELTA=0.1      KAPPA=0.20      TPG=1              CGDO=3.1716E-10 
+RD=11          VTO=-1.50       VMAX=1.0E7         ETA=0.0223089 
+NFS=6.6E10     TOX=725E-10     LD=1.698E-9        UO=862.425
+XJ=6.4666E-7   THETA=1.0E-5    CGSO=2.50E-9       L=4.0E-6
+W=59E-3)  

**DN2540 MODEL
*  
.MODEL DN2540   NMOS (LEVEL=3   RS=1.05            NSUB=5.0E14  
+DELTA=0.1      KAPPA=0.20      TPG=1              CGDO=3.1716E-10 
+RD=11          VTO=-1.50       VMAX=1.0E7         ETA=0.0223089 
+NFS=6.6E10     TOX=725E-10     LD=1.698E-9        UO=862.425
+XJ=6.4666E-7   THETA=1.0E-5    CGSO=2.50E-9       L=4.0E-6
+W=59E-3)  

* *LND150 MODEL  
*
.MODEL LND150   NMOS (LEVEL=3   RS=150.00          NSUB=5.0E13  
+DELTA=0.1      KAPPA=1.O       TPG=1              CGDO=2.1716E-12 
+RD=40.0        VTO=-2.0        VMAX=1.0E8         ETA=0.1 
+NFS=6.6E10     TOX=1.0E-7      LD=1.698E-9        UO=862.425
+XJ=6.4666E-7   THETA=1.0E-5    CGSO=5.09E-10      L=10.0E-6
+W=600E-6)  

* *LND250 MODEL  
*
.MODEL LND250   NMOS (LEVEL=3   RS=150.00          NSUB=5.0E13  
+DELTA=0.1      KAPPA=1.O       TPG=1              CGDO=2.1716E-12 
+RD=40.0        VTO=-2.0        VMAX=1.0E8         ETA=0.1 
+NFS=6.6E10     TOX=1.0E-7      LD=1.698E-9        UO=862.425
+XJ=6.4666E-7   THETA=1.0E-5    CGSO=5.09E-10      L=10.0E-6
+W=600E-6)  

* *LNE150 MODEL
*  
.MODEL LNE150   NMOS (LEVEL=3   RS=120.00          NSUB=5.0E13  
+DELTA=0.1      KAPPA=1.O       TPG=1              CGDO=2.1716E-12 
+RD=200.0       VTO=1.0         VMAX=1.0E8         ETA=0.1 
+NFS=6.6E10     TOX=1.0E-7      LD=1.698E-9        UO=862.425
+XJ=6.4666E-7   THETA=1.0E-5    CGSO=5.09E-10      L=10.0E-6
+W=600E-6)  

* *LP0701 MODEL
*  
.MODEL LP0701   PMOS (LEVEL=3   RS=0.10            NSUB=1.0E15   
+DELTA=0.1      KAPPA=0.10123   TPG=-1             CGDO=8.3432E-10 
+RD=0.350       VTO=-0.50       VMAX=1.0E7         ETA=0.0223089 
+NFS=6.6E10     TOX=3.5E-8      LD=1.698E-9        UO=862.425
+XJ=6.4666E-7   THETA=1.0E-5    CGSO=5.21798E-9    L=3.0E-6
+W=3.82E-1      KP=2.6E-6)  

*LP0801 MODEL 
*  
.MODEL LP0801   PMOS (LEVEL=3   RS=0.05            NSUB=1.0E15   
+DELTA=0.1      KAPPA=0.10123   TPG=-1             CGDO=8.3432E-10 
+RD=0.210       VTO=-0.80       VMAX=1.0E7         ETA=0.471 
+NFS=6.6E10     TOX=3.5E-8      LD=1.698E-9        UO=862.425
+XJ=6.4E-7      THETA=1.0E-5    CGSO=5.21798E-9    L=2.5E-6
+W=5.2E-3)  

*TN0102 MODEL
*  
.MODEL TN0102   NMOS (LEVEL=3   RS=0.0205          NSUB=1.0E15  
+DELTA=0.1      KAPPA=0.0506    TPG=1              CGDO=6.1716E-10 
+RD=0.239       VTO=1.000       VMAX=1.0E7         ETA=0.0223089
+NFS=6.6E10     TOX=1.00E-7     LD=1.698E-9        UO=862.425
+XJ=6.4666E-7   THETA=1.0E-5    CGSO=9.10E-9       L=2.5E-6
+W=0.9E-2)  

* *TN0104 MODEL
*  
.MODEL TN0104   NMOS (LEVEL=3   RS=0.0205          NSUB=1.0E15  
+DELTA=0.1      KAPPA=0.0506    TPG=1              CGDO=6.1716E-10 
+RD=0.239       VTO=1.000       VMAX=1.0E7         ETA=0.0223089
+NFS=6.6E10     TOX=1.00E-7     LD=1.698E-9        UO=862.425
+XJ=6.4666E-7   THETA=1.0E-5    CGSO=9.10E-9       L=2.5E-6
+W=0.9E-2)  

* *TN0106 MODEL
*  
.MODEL TN0106   NMOS (LEVEL=3   RS=0.205           NSUB=1.0E15  
+DELTA=0.1      KAPPA=0.0506    TPG=1              CGDO=3.1716E-9 
+RD=0.239       VTO=1.000       VMAX=1.0E7         ETA=0.0223089 
+NFS=6.6E10     TOX=1.0E-7      LD=1.698E-9        UO=862.425
+XJ=6.4666E-7   THETA=1.0E-5    CGSO=9.09E-9       L=2.5E-6
+W=0.9E-2)  

* *TN0110 MODEL
*  
.MODEL TN0110   NMOS (LEVEL=3   RS=0.205           NSUB=1.0E15  
+DELTA=0.1      KAPPA=0.0506    TPG=1              CGDO=3.1716E-9 
+RD=0.239       VTO=1.000       VMAX=1.0E7         ETA=0.0223089 
+NFS=6.6E10     TOX=1.0E-7      LD=1.698E-9        UO=862.425
+XJ=6.4666E-7   THETA=1.0E-5    CGSO=9.09E-9       L=2.5E-6
+W=0.9E-2)  

* *TN0535 MODEL
*  
.MODEL TN0535   NMOS (LEVEL=3   RS=0.30            NSUB=5.0E15  
+DELTA=0.1      KAPPA=0.0612    TPG=1              CGDO=2.8432E-10 
+RD=18.00       VTO=1.60        VMAX=5.0E4         ETA=0.20
+NFS=6.466E10   TOX=1.0E-7      LD=1.6938E-9       UO=862
+XJ=6.46E-7     THETA=1.0E-5    CGSO=3.8198E-9     L=4.0E-6
+W=1.0E-2)  

* * 
*TN0540 MODEL
*  
.MODEL TN0540   NMOS (LEVEL=3   RS=0.30            NSUB=5.0E15  
+DELTA=0.1      KAPPA=0.0612    TPG=1              CGDO=2.8432E-10 
+RD=18.00       VTO=1.60        VMAX=5.0E4         ETA=0.20
+NFS=6.466E10   TOX=1.0E-7      LD=1.6938E-9       UO=862
+XJ=6.46E-7     THETA=1.0E-5    CGSO=3.8198E-9     L=4.0E-6
+W=1.0E-2)  

*TN0602 MODEL
*  
.MODEL TN0602   NMOS (LEVEL=3   RS=3.56E-3         NSUB=1.0E15  
+DELTA=0.1      KAPPA=0.10123   TPG=1              CGDO=4.3432E-11 
+RD=0.0239      VTO=1.327       VMAX=1.0E7         ETA=0.0223089 
+NFS=6.6E10     TOX=1.0E-7      LD=1.698E-9        UO=862.425
+XJ=6.4666E-7   THETA=1.0E-5    CGSO=1.21798E-10   L=2.5E-6
+W=2.0E-2)  

* *TN0604 MODEL
*  
.MODEL TN0604   NMOS (LEVEL=3   RS=3.56E-3         NSUB=1.0E15  
+DELTA=0.1      KAPPA=0.10123   TPG=1              CGDO=4.3432E-11 
+RD=0.0239      VTO=1.327       VMAX=1.0E7         ETA=0.0223089 
+NFS=6.6E10     TOX=1.0E-7      LD=1.698E-9        UO=862.425
+XJ=6.4666E-7   THETA=1.0E-5    CGSO=1.21798E-10   L=2.5E-6
+W=2.0E-2)  

* *TN0606 MODEL
*  
.MODEL TN0606   NMOS (LEVEL=3   RS=0.100           NSUB=3.00E15  
+DELTA=0.1      KAPPA=0.10123   TPG=1              CGDO=4.3432E-11 
+RD=0.45        VTO=1.300       VMAX=1.0E7         ETA=0.0223089
+NFS=6.6E10     TOX=1.00E-7     LD=1.698E-9        UO=862.425
+XJ=6.46E-7     THETA=1.0E-5    CGSO=1.2179-10     L=2.5E-6
+W=2.0E-2)  

* *TN0610 MODEL
*  
.MODEL TN0610   NMOS (LEVEL=3   RS=0.100           NSUB=3.00E15  
+DELTA=0.1      KAPPA=0.10123   TPG=1              CGDO=4.3432E-11 
+RD=0.45        VTO=1.300       VMAX=1.0E7         ETA=0.0223089
+NFS=6.6E10     TOX=1.00E-7     LD=1.698E-9        UO=862.425
+XJ=6.46E-7     THETA=1.0E-5    CGSO=1.2179-10     L=2.5E-6
+W=2.0E-2)  

* *TN0620 MODEL
*  
.MODEL TN0620   NMOS (LEVEL=3   RS=0.1             NSUB=1.0E14  
+DELTA=0.1      KAPPA=0.10123   TPG=1              CGDO=2.743E-10 
+RD=3.3         VTO=1.34        VMAX=1.0E7         ETA=0.0223089 
+NFS=6.6E10     TOX=1.0E-7      LD=1.698E-9        UO=862.425
+XJ=6.4666E-7   THETA=1.0E-5    CGSO=1.50E-8       L=2.5E-6
+W=1.6E-2)  

**TN0624 MODEL
*  
.MODEL TN0624   NMOS (LEVEL=3   RS=0.1             NSUB=1.0E14  
+DELTA=0.1      KAPPA=0.10123   TPG=1              CGDO=2.743E-10 
+RD=3.3         VTO=1.34        VMAX=1.0E7         ETA=0.0223089 
+NFS=6.6E10     TOX=1.0E-7      LD=1.698E-9        UO=862.425
+XJ=6.4666E-7   THETA=1.0E-5    CGSO=1.50E-8       L=2.5E-6
+W=1.6E-2)  

*TN0635 MODEL
*  
.MODEL TN0635   NMOS (LEVEL=3   RS=0.2             NSUB=1.0E14  
+DELTA=0.1      KAPPA=0.10123   TPG=1              CGDO=2.743E-10 
+RD=5.6         VTO=1.40        VMAX=1.0E7         ETA=0.002 
+NFS=6.6E10     TOX=1.0E-7      LD=1.698E-9        UO=862.425
+XJ=6.4666E-7   THETA=1.0E-5    CGSO=1.50E-8       L=2.5E-6
+W=1.6E-2)  

*TN0640 MODEL
*  
.MODEL TN0640   NMOS (LEVEL=3   RS=0.2             NSUB=1.0E14  
+DELTA=0.1      KAPPA=0.10123   TPG=1              CGDO=2.743E-10 
+RD=5.6         VTO=1.40        VMAX=1.0E7         ETA=0.002 
+NFS=6.6E10     TOX=1.0E-7      LD=1.698E-9        UO=862.425
+XJ=6.4666E-7   THETA=1.0E-5    CGSO=1.50E-8       L=2.5E-6
+W=1.6E-2)  

* *TN0702 MODEL
*  
.MODEL TN0702   NMOS (LEVEL=3   RS=3.56E-3         NSUB=1.0E15  
+DELTA=0.1      KAPPA=0.10123   TPG=1              CGDO=8.3432E-10 
+RD=0.2039      VTO=0.900       VMAX=1.0E7         ETA=0.0223089 
+NFS=6.6E10     TOX=7E-8        LD=1.698E-9        UO=862.425
+XJ=6.4666E-7   THETA=1.0E-5    CGSO=5.21798E-9    L=2.5E-6
+W=2.0E-2)  

* *TN2106 MODEL
*  
.MODEL TN2106   NMOS (LEVEL=3   RS=0.0205          NSUB=1.0E15  
+DELTA=0.1      KAPPA=0.0506    TPG=1              CGDO=6.1716E-10 
+RD=0.12        VTO=1.200       VMAX=1.0E7         ETA=0.0223089 
+NFS=6.6E10     TOX=0.80E-7     LD=1.698E-9        UO=862.425
+XJ=6.4666E-7   THETA=1.0E-5    CGSO=9.10E-9       L=2.5E-6
+W=0.5E-2)  

* *TN2501 MODEL
*  
.MODEL TN2501   NMOS (LEVEL=3   RS=0.07            NSUB=1.0E15  
+DELTA=0.1      KAPPA=0.20      TPG=1              CGDO=3.1716E-10 
+RD=1.2         VTO=0.700       VMAX=1.0E7         ETA=0.0223089 
+NFS=6.6E10     TOX=725E-10     LD=1.698E-9        UO=862.425
+XJ=6.4666E-7   THETA=1.0E-5    CGSO=2.50E-9       L=2.0E-6
+W=59E-3)  

* *TN2502 MODEL
*  
.MODEL TN2502   NMOS (LEVEL=3   RS=0.03            NSUB=1.0E15  
+DELTA=0.1      KAPPA=0.20      TPG=1              CGDO=3.1716E-10 
+RD=0.1         VTO=1.100       VMAX=1.0E7         ETA=0.0223089 
+NFS=6.6E10     TOX=750E-10     LD=1.698E-9        UO=862.425
+XJ=6.4666E-7   THETA=1.0E-5    CGSO=2.50E-9       L=2.0E-6
+W=59E-3        KP=5.5E-6)  

* *TN2504 MODEL
*  
.MODEL TN2504   NMOS (LEVEL=3   RS=0.03            NSUB=1.0E15  
+DELTA=0.1      KAPPA=0.20      TPG=1              CGDO=3.1716E-10 
+RD=0.1         VTO=1.100       VMAX=1.0E7         ETA=0.0223089 
+NFS=6.6E10     TOX=750E-10     LD=1.698E-9        UO=862.425
+XJ=6.4666E-7   THETA=1.0E-5    CGSO=2.50E-9       L=2.0E-6
+W=59E-3        KP=5.5E-6)  

* *TN2506 MODEL
*  
.MODEL TN2506   NMOS (LEVEL=3   RS=0.02            NSUB=3.0E15  
+DELTA=1.0      KAPPA=1.20      TPG=1              CGDO=1.916E-10 
+RD=0.23        VTO=1.500       VMAX=5.0E6         ETA=0.053089 
+NFS=6.6E10     TOX=725E-10     LD=1.698E-9        UO=862.425
+XJ=6.4666E-7   THETA=1.0E-5    CGSO=1.750E-9      L=2.0E-6
+W=59E-3        KP=5.5E-6)  

* *TN2510 MODEL
*  
.MODEL TN2510   NMOS (LEVEL=3   RS=0.02            NSUB=3.0E15  
+DELTA=1.0      KAPPA=1.20      TPG=1              CGDO=1.916E-10 
+RD=0.23        VTO=1.500       VMAX=5.0E6         ETA=0.053089 
+NFS=6.6E10     TOX=725E-10     LD=1.698E-9        UO=862.425
+XJ=6.4666E-7   THETA=1.0E-5    CGSO=1.750E-9      L=2.0E-6
+W=59E-3        KP=5.5E-6)  

* *TN2520 MODEL
*  
.MODEL TN2520   NMOS (LEVEL=3   RS=0.02            NSUB=3.0E15  
+DELTA=1.0      KAPPA=1.20      TPG=1              CGDO=1.916E-10 
+RD=2.5         VTO=1.500       VMAX=5.0E6         ETA=0.053089 
+NFS=6.6E10     TOX=725E-10     LD=1.698E-9        UO=862.425
+XJ=6.4666E-7   THETA=1.0E-5    CGSO=1.750E-9      L=2.0E-6
+W=59E-3        KP=2.5E-6)  

* *TN2524 MODEL
*  
.MODEL TN2524   NMOS (LEVEL=3   RS=0.02            NSUB=3.0E15  
+DELTA=1.0      KAPPA=1.20      TPG=1              CGDO=1.916E-10 
+RD=2.5         VTO=1.500       VMAX=5.0E6         ETA=0.053089 
+NFS=6.6E10     TOX=725E-10     LD=1.698E-9        UO=862.425
+XJ=6.4666E-7   THETA=1.0E-5    CGSO=1.750E-9      L=2.0E-6
+W=59E-3        KP=2.5E-6)  

* *TN2535 MODEL
*  
.MODEL TN2535   NMOS (LEVEL=3   RS=0.205           NSUB=5.0E14  
+DELTA=0.1      KAPPA=0.20      TPG=1              CGDO=3.1716E-10 
+RD=6.5         VTO=1.500       VMAX=1.0E7         ETA=0.0223089 
+NFS=6.6E10     TOX=725E-10     LD=1.698E-9        UO=862.425
+XJ=6.4666E-7   THETA=1.0E-5    CGSO=2.50E-9       L=2.0E-6
+W=59E-3        KP=5.5E-6)  

* *TN2540 MODEL
*  
.MODEL TN2540   NMOS (LEVEL=3   RS=0.205           NSUB=5.0E14  
+DELTA=0.1      KAPPA=0.20      TPG=1              CGDO=3.1716E-10 
+RD=6.5         VTO=1.500       VMAX=1.0E7         ETA=0.0223089 
+NFS=6.6E10     TOX=725E-10     LD=1.698E-9        UO=862.425
+XJ=6.4666E-7   THETA=1.0E-5    CGSO=2.50E-9       L=2.0E-6
+W=59E-3        KP=5.5E-6)  

* *TN2635 MODEL
*  
.MODEL TN2635   NMOS (LEVEL=3   RS=0.07            NSUB=1.5E15  
+DELTA=1.0      KAPPA=1.20      TPG=1              CGDO=1.16E-10 
+RD=2.0         VTO=1.20        VMAX=5.0E6         ETA=0.053089 
+NFS=6.6E10     TOX=750E-10     LD=1.698E-9        UO=862.425
+XJ=6.4666E-7   THETA=1.0E-5    CGSO=6.13E-10      L=2.5E-6
+W=100E-3       KP=3.5E-6)  

* *TN2640 MODEL
*  
.MODEL TN2640   NMOS (LEVEL=3   RS=0.07            NSUB=1.5E15  
+DELTA=1.0      KAPPA=1.20      TPG=1              CGDO=1.16E-10 
+RD=2.0         VTO=1.20        VMAX=5.0E6         ETA=0.053089 
+NFS=6.6E10     TOX=750E-10     LD=1.698E-9        UO=862.425
+XJ=6.4666E-7   THETA=1.0E-5    CGSO=6.13E-10      L=2.5E-6
+W=100E-3       KP=3.5E-6)  

* *TP0102 MODEL
*  
.MODEL TP0102   PMOS (LEVEL=3   RS=0.1274          NSUB=5.0E14  
+DELTA=0.1      KAPPA=0.0411    TPG=-1             CGDO=6.1716E-10 
+RD=1.0754      VTO=-2.000      VMAX=3.0E6         ETA=0.12098
+NFS=3.384E11   TOX=1.00E-7     LD=1.1400E-9       UO=865.45
+XJ=6.5E-7      THETA=4.063E-5  CGSO=9.10E-9       L=2.5E-6
+W=0.9E-2)  

* *TP0104 MODEL
*  
.MODEL TP0104   PMOS (LEVEL=3   RS=0.1274          NSUB=5.0E14  
+DELTA=0.1      KAPPA=0.0411    TPG=-1             CGDO=6.1716E-10 
+RD=1.0754      VTO=-2.000      VMAX=3.0E6         ETA=0.12098
+NFS=3.384E11   TOX=1.00E-7     LD=1.1400E-9       UO=865.45
+XJ=6.5E-7      THETA=4.063E-5  CGSO=9.10E-9       L=2.5E-6
+W=0.9E-2)  

* *TP0602 MODEL
*  
.MODEL TP0602   PMOS (LEVEL=3   RS=0.0238          NSUB=5.0E14  
+DELTA=0.1      KAPPA=0.08214   TPG=-1             CGDO=5.22123E-11 
+RD=0.0239      VTO=-1.90       VMAX=3E6           ETA=0.121 
+NFS=3.3841E11  TOX=1.0E-7      LD=1.140E-9        UO=365.45
+XJ=6.5E-7      THETA=4.06E-5   CGSO=8.532E-11     L=2.5E-6
+W=2.0E-2)  

*TP0604 MODEL
*  
.MODEL TP0604   PMOS (LEVEL=3   RS=0.0238          NSUB=5.0E14  
+DELTA=0.1      KAPPA=0.08214   TPG=-1             CGDO=5.22123E-11 
+RD=0.0239      VTO=-1.90       VMAX=3E6           ETA=0.121 
+NFS=3.3841E11  TOX=1.0E-7      LD=1.140E-9        UO=365.45
+XJ=6.5E-7      THETA=4.06E-5   CGSO=8.532E-11     L=2.5E-6
+W=2.0E-2)  

* *TP0606 MODEL
*  
.MODEL TP0606   PMOS (LEVEL=3   RS=0.200           NSUB=3.00E15  
+DELTA=0.1      KAPPA=0.0821    TPG=-1             CGDO=5.2212E-11 
+RD=0.854       VTO=-2.100      VMAX=3.0E6         ETA=0.12098
+NFS=3.384E11   TOX=1.00E-7     LD=1.1400E-9       UO=365.45
+XJ=6.5E-7      THETA=4.063E-5  CGSO=8.532E-11     L=2.5E-6
+W=2.0E-2)  

* *TP0610T MODEL
*  
.MODEL TP0610T  PMOS (LEVEL=3   RS=0.73            NSUB=5.0E14  
+DELTA=0.1      KAPPA=0.0411    TPG=-1             CGDO=6.1716E-10 
+RD=1.91        VTO=-2.10       VMAX=3.0E6         ETA=0.12098
+NFS=3.384E11   TOX=1.0E-7      LD=1.6980E-9       UO=865.45
+XJ=6.5E-7      THETA=4.063E-5  CGSO=9.10E-9       L=2.5E-6
+W=0.5E-2)  

* *TP0610 MODEL
*  
.MODEL TP0610   PMOS (LEVEL=3   RS=0.200           NSUB=3.00E15  
+DELTA=0.1      KAPPA=0.0821    TPG=-1             CGDO=5.2212E-11 
+RD=0.854       VTO=-2.100      VMAX=3.0E6         ETA=0.12098
+NFS=3.384E11   TOX=1.00E-7     LD=1.1400E-9       UO=365.45
+XJ=6.5E-7      THETA=4.063E-5  CGSO=8.532E-11     L=2.5E-6
+W=2.0E-2)  

* *TP0616 MODEL 
*  
.MODEL TP0616   PMOS (LEVEL=3   RS=0.200           NSUB=1.50E15  
+DELTA=0.1      KAPPA=0.0821    TPG=-1             CGDO=2.812E-10 
+RD=5.854       VTO=-2.100      VMAX=3.0E6         ETA=0.12098
+NFS=3.384E11   TOX=1.00E-7     LD=1.1400E-9       UO=365.45
+XJ=6.5E-7      THETA=4.063E-5  CGSO=1.62E-8       L=2.5E-6
+W=1.6E-2)  

* *TP0620 MODEL 
*  
.MODEL TP0620   PMOS (LEVEL=3   RS=0.200           NSUB=1.50E15  
+DELTA=0.1      KAPPA=0.0821    TPG=-1             CGDO=2.812E-10 
+RD=5.854       VTO=-2.100      VMAX=3.0E6         ETA=0.12098
+NFS=3.384E11   TOX=1.00E-7     LD=1.1400E-9       UO=365.45
+XJ=6.5E-7      THETA=4.063E-5  CGSO=1.62E-8       L=2.5E-6
+W=1.6E-2)  

* *TP2105 MODEL
*  
.MODEL TP2105   PMOS (LEVEL=3   RS=0.73            NSUB=5.0E14  
+DELTA=0.1      KAPPA=0.0411    TPG=-1             CGDO=6.1716E-10 
+RD=1.91        VTO=-2.10       VMAX=3.0E6         ETA=0.12098
+NFS=3.384E11   TOX=1.0E-7      LD=1.6980E-9       UO=865.45
+XJ=6.5E-7      THETA=4.063E-5  CGSO=9.10E-9       L=2.5E-6
+W=0.5E-2)  

* *TP2502 MODEL
*  
.MODEL TP2502   PMOS (LEVEL=3   RS=0.03            NSUB=1.0E15  
+DELTA=1.0      KAPPA=1.20      TPG=1              CGDO=3.172E-10 
+RD=0.25        VTO=-2.0        VMAX=5.0E6         ETA=0.053089 
+NFS=6.6E10     TOX=725E-10     LD=1.698E-9        UO=862.425
+XJ=6.4666E-7   THETA=1.0E-5    CGSO=2.750E-9      L=2.0E-6
+W=60E-3        KP=4.3E-6)  

* *TP2504 MODEL
*  
.MODEL TP2504   PMOS (LEVEL=3   RS=0.03            NSUB=1.0E15  
+DELTA=1.0      KAPPA=1.20      TPG=1              CGDO=3.172E-10 
+RD=0.25        VTO=-2.0        VMAX=5.0E6         ETA=0.053089 
+NFS=6.6E10     TOX=725E-10     LD=1.698E-9        UO=862.425
+XJ=6.4666E-7   THETA=1.0E-5    CGSO=2.750E-9      L=2.0E-6
+W=60E-3        KP=4.3E-6)  

* *TP2506 MODEL
*  
.MODEL TP2506   PMOS (LEVEL=3   RS=0.05            NSUB=1.0E15  
+DELTA=1.0      KAPPA=1.20      TPG=1              CGDO=3.172E-10 
+RD=0.90        VTO=-2.10       VMAX=5.0E6         ETA=0.053089 
+NFS=6.6E10     TOX=725E-10     LD=1.698E-9        UO=862.425
+XJ=6.4666E-7   THETA=1.0E-5    CGSO=1.750E-9      L=2.0E-6
+W=59E-3        KP=2.5E-6)  

**TP2510 MODEL
*  
.MODEL TP2510   PMOS (LEVEL=3   RS=0.05            NSUB=1.0E15  
+DELTA=1.0      KAPPA=1.20      TPG=1              CGDO=3.172E-10 
+RD=0.90        VTO=-2.10       VMAX=5.0E6         ETA=0.053089 
+NFS=6.6E10     TOX=725E-10     LD=1.698E-9        UO=862.425
+XJ=6.4666E-7   THETA=1.0E-5    CGSO=1.750E-9      L=2.0E-6
+W=59E-3        KP=2.5E-6)  

* *TP2516 MODEL
*  
.MODEL TP2516   PMOS (LEVEL=3   RS=0.20            NSUB=1.5E15  
+DELTA=1.0      KAPPA=1.20      TPG=-1             CGDO=1.916E-10 
+RD=5.5         VTO=-2.10       VMAX=5.0E6         ETA=0.053089 
+NFS=6.6E10     TOX=725E-10     LD=1.698E-9        UO=862.425
+XJ=6.4666E-7   THETA=1.0E-5    CGSO=1.750E-9      L=2.0E-6
+W=59E-3        KP=2.5E-6)  

* *TP2520 MODEL
*  
.MODEL TP2520   PMOS (LEVEL=3   RS=0.20            NSUB=1.5E15  
+DELTA=1.0      KAPPA=1.20      TPG=-1             CGDO=1.916E-10 
+RD=5.5         VTO=-2.10       VMAX=5.0E6         ETA=0.053089 
+NFS=6.6E10     TOX=725E-10     LD=1.698E-9        UO=862.425
+XJ=6.4666E-7   THETA=1.0E-5    CGSO=1.750E-9      L=2.0E-6
+W=59E-3        KP=2.5E-6)  

* *TP2535 MODEL
*  
.MODEL TP2535   PMOS (LEVEL=3   RS=0.25            NSUB=1.5E15  
+DELTA=1.0      KAPPA=1.20      TPG=-1             CGDO=1.916E-10 
+RD=17          VTO=-2.10       VMAX=5.0E6         ETA=0.053089 
+NFS=6.6E10     TOX=725E-10     LD=1.698E-9        UO=862.425
+XJ=6.4666E-7   THETA=1.0E-5    CGSO=1.750E-9      L=2.0E-6
+W=59E-3        KP=2.5E-6)  

* *TP2540 MODEL
*  
.MODEL TP2540   PMOS (LEVEL=3   RS=0.25            NSUB=1.5E15  
+DELTA=1.0      KAPPA=1.20      TPG=-1             CGDO=1.916E-10 
+RD=17          VTO=-2.10       VMAX=5.0E6         ETA=0.053089 
+NFS=6.6E10     TOX=725E-10     LD=1.698E-9        UO=862.425
+XJ=6.4666E-7   THETA=1.0E-5    CGSO=1.750E-9      L=2.0E-6
+W=59E-3        KP=2.5E-6)  

* *TP2635 MODEL
*  
.MODEL TP2635   PMOS (LEVEL=3   RS=0.20            NSUB=1.5E15  
+DELTA=1.0      KAPPA=1.20      TPG=-1             CGDO=1.916E-10 
+RD=9.5         VTO=-1.10       VMAX=5.0E6         ETA=0.053089 
+NFS=6.6E10     TOX=750E-10     LD=1.698E-9        UO=862.425
+XJ=6.4666E-7   THETA=1.0E-5    CGSO=1.750E-9      L=2.5E-6
+W=100E-3       KP=2.5E-6)  

* *TP2640 MODEL
*  
.MODEL TP2640   PMOS (LEVEL=3   RS=0.20            NSUB=1.5E15  
+DELTA=1.0      KAPPA=1.20      TPG=-1             CGDO=1.916E-10 
+RD=9.5         VTO=-1.10       VMAX=5.0E6         ETA=0.053089 
+NFS=6.6E10     TOX=750E-10     LD=1.698E-9        UO=862.425
+XJ=6.4666E-7   THETA=1.0E-5    CGSO=1.750E-9      L=2.5E-6
+W=100E-3       KP=2.5E-6)  

* *VN0104 MODEL
*  
.MODEL VN0104   NMOS (LEVEL=3   RS=0.205           NSUB=1.0E15  
+DELTA=0.1      KAPPA=0.0506    TPG=1              CGDO=3.1716E-9 
+RD=0.239       VTO=1.000       VMAX=1.0E7         ETA=0.0223089 
+NFS=6.6E10     TOX=1.0E-7      LD=1.698E-9        UO=862.425
+XJ=6.4666E-7   THETA=1.0E-5    CGSO=9.09E-9       L=2.5E-6
+W=0.8E-2)  

* *VN0106 MODEL
*  
.MODEL VN0106   NMOS (LEVEL=3   RS=0.205           NSUB=1.0E15  
+DELTA=0.1      KAPPA=0.0506    TPG=1              CGDO=3.1716E-9 
+RD=0.239       VTO=1.000       VMAX=1.0E7         ETA=0.0223089 
+NFS=6.6E10     TOX=1.0E-7      LD=1.698E-9        UO=862.425
+XJ=6.4666E-7   THETA=1.0E-5    CGSO=9.09E-9       L=2.5E-6
+W=0.8E-2)  

* *VN0109 MODEL
*  
.MODEL VN0109   NMOS (LEVEL=3   RS=0.205           NSUB=1.0E15  
+DELTA=0.1      KAPPA=0.0506    TPG=1              CGDO=3.1716E-9 
+RD=0.239       VTO=1.000       VMAX=1.0E7         ETA=0.0223089 
+NFS=6.6E10     TOX=1.0E-7      LD=1.698E-9        UO=862.425
+XJ=6.4666E-7   THETA=1.0E-5    CGSO=9.09E-9       L=2.5E-6
+W=0.8E-2)  

* *VN0335 MODEL
*  
.MODEL VN0335   NMOS (LEVEL=3   RS=0.11            NSUB=5.0E15  
+DELTA=0.1      KAPPA=0.10123   TPG=1              CGDO=2.613E-10 
+RD=1.33        VTO=3.00        VMAX=1.0E7         ETA=0.0223089 
+NFS=6.6E10     TOX=1.0E-7      LD=1.698E-9        UO=862.425
+XJ=6.4666E-7   THETA=1.0E-5    CGSO=5.269E-9      L=2.5E-6
+W=8.85E-2      CBD=40E-12)  

* *VN0340 MODEL
*  
.MODEL VN0340   NMOS (LEVEL=3   RS=0.11            NSUB=5.0E15  
+DELTA=0.1      KAPPA=0.10123   TPG=1              CGDO=2.613E-10 
+RD=1.33        VTO=3.00        VMAX=1.0E7         ETA=0.0223089 
+NFS=6.6E10     TOX=1.0E-7      LD=1.698E-9        UO=862.425
+XJ=6.4666E-7   THETA=1.0E-5    CGSO=5.269E-9      L=2.5E-6
+W=8.85E-2      CBD=40E-12)  

* *VN0345 MODEL
*  
.MODEL VN0345   NMOS (LEVEL=3   RS=0.18            NSUB=5.0E15  
+DELTA=0.1      KAPPA=0.10123   TPG=1              CGDO=2.613E-10 
+RD=2.45        VTO=3.00        VMAX=1.0E7         ETA=0.0223089 
+NFS=6.6E10     TOX=1.0E-7      LD=1.698E-9        UO=862.425
+XJ=6.4666E-7   THETA=1.0E-5    CGSO=5.269E-9      L=3.0E-6
+W=8.85E-2      CBD=40E-12)  

* *VN0350 MODEL
*  
.MODEL VN0350   NMOS (LEVEL=3   RS=0.18            NSUB=5.0E15  
+DELTA=0.1      KAPPA=0.10123   TPG=1              CGDO=2.613E-10 
+RD=2.45        VTO=3.00        VMAX=1.0E7         ETA=0.0223089 
+NFS=6.6E10     TOX=1.0E-7      LD=1.698E-9        UO=862.425
+XJ=6.4666E-7   THETA=1.0E-5    CGSO=5.269E-9      L=3.0E-6
+W=8.85E-2      CBD=40E-12)  

* *VN0535 MODEL
*  
.MODEL VN0535   NMOS (LEVEL=3   RS=0.30            NSUB=5.0E15  
+DELTA=0.1      KAPPA=0.0612    TPG=1              CGDO=2.8432E-10 
+RD=22.00       VTO=3.00        VMAX=5.0E4         ETA=0.20
+NFS=6.466E10   TOX=1.0E-7      LD=1.6938E-9       UO=862
+XJ=6.46E-7     THETA=1.0E-5    CGSO=3.8198E-9     L=4.0E-6
+W=1.0E-2)  

* *VN0540 MODEL
*  
.MODEL VN0540   NMOS (LEVEL=3   RS=0.30            NSUB=5.0E15  
+DELTA=0.1      KAPPA=0.0612    TPG=1              CGDO=2.8432E-10 
+RD=22.00       VTO=3.00        VMAX=5.0E4         ETA=0.20
+NFS=6.466E10   TOX=1.0E-7      LD=1.6938E-9       UO=862
+XJ=6.46E-7     THETA=1.0E-5    CGSO=3.8198E-9     L=4.0E-6
+W=1.0E-2)  

* *  VN0545 MODEL
*                          
.MODEL VN0545   NMOS (LEVEL=3   RS=1.0             NSUB=5.0E15  
+DELTA=0.1      KAPPA=0.0612    TPG=1              CGDO=2.8432E-10 
+RD=40.00       VTO=3.00        VMAX=5.0E4         ETA=0.20
+NFS=6.466E10   TOX=1.0E-7      LD=1.6938E-9       UO=862
+XJ=6.46E-7     THETA=1.0E-5    CGSO=3.8198E-9     L=4.5E-6
+W=0.95E-2)  

* *  VN0550 MODEL
*                          
.MODEL VN0550   NMOS (LEVEL=3   RS=1.0             NSUB=5.0E15  
+DELTA=0.1      KAPPA=0.0612    TPG=1              CGDO=2.8432E-10 
+RD=40.00       VTO=3.00        VMAX=5.0E4         ETA=0.20
+NFS=6.466E10   TOX=1.0E-7      LD=1.6938E-9       UO=862
+XJ=6.46E-7     THETA=1.0E-5    CGSO=3.8198E-9     L=4.5E-6
+W=0.95E-2)  

* *VN0635 MODEL
*  
.MODEL VN0635   NMOS (LEVEL=3   RS=0.50            NSUB=5.0E15  
+DELTA=0.1      KAPPA=0.10123   TPG=1              CGDO=6.8432E-10 
+RD=6.00        VTO=3.00        VMAX=1.0E7         ETA=0.0223089 
+NFS=6.6E10     TOX=1.0E-7      LD=1.698E-9        UO=862.425
+XJ=6.4666E-7   THETA=1.0E-5    CGSO=7.5698E-9     L=2.5E-6
+W=2.4E-2       CBD=40E-12)  

* *VN0640 MODEL
*  
.MODEL VN0640   NMOS (LEVEL=3   RS=0.50            NSUB=5.0E15  
+DELTA=0.1      KAPPA=0.10123   TPG=1              CGDO=6.8432E-10 
+RD=6.00        VTO=3.00        VMAX=1.0E7         ETA=0.0223089 
+NFS=6.6E10     TOX=1.0E-7      LD=1.698E-9        UO=862.425
+XJ=6.4666E-7   THETA=1.0E-5    CGSO=7.5698E-9     L=2.5E-6
+W=2.4E-2       CBD=40E-12)  

* *VN0645 MODEL
*  
.MODEL VN0645   NMOS (LEVEL=3   RS=0.80            NSUB=5.0E15  
+DELTA=0.1      KAPPA=0.10123   TPG=1              CGDO=6.8432E-10 
+RD=11.00       VTO=2.80        VMAX=1.0E7         ETA=0.0223089 
+NFS=6.6E10     TOX=1.0E-7      LD=1.698E-9        UO=862.425
+XJ=6.4666E-7   THETA=1.0E-5    CGSO=7.5698E-9     L=3.0E-6
+W=2.4E-2       CBD=40E-12)  

* *VN0650 MODEL
*  
.MODEL VN0650   NMOS (LEVEL=3   RS=0.80            NSUB=5.0E15  
+DELTA=0.1      KAPPA=0.10123   TPG=1              CGDO=6.8432E-10 
+RD=11.00       VTO=2.80        VMAX=1.0E7         ETA=0.0223089 
+NFS=6.6E10     TOX=1.0E-7      LD=1.698E-9        UO=862.425
+XJ=6.4666E-7   THETA=1.0E-5    CGSO=7.5698E-9     L=3.0E-6
+W=2.4E-2       CBD=40E-12)  

* *VN0655 MODEL
*  
.MODEL VN0655   NMOS (LEVEL=3   RS=0.200           NSUB=5.0E15  
+DELTA=0.1      KAPPA=0.10123   TPG=1              CGDO=3.3432E-9 
+RD=12.00       VTO=2.57        VMAX=1.0E7         ETA=0.0223089 
+NFS=6.6E10     TOX=1.0E-7      LD=1.698E-9        UO=862.425
+XJ=6.4666E-7   THETA=1.0E-5    CGSO=9.1798E-9     L=2.5E-6
+W=2.4E-2)  

* *VN0660 MODEL
*  
.MODEL VN0660   NMOS (LEVEL=3   RS=0.200           NSUB=5.0E15  
+DELTA=0.1      KAPPA=0.10123   TPG=1              CGDO=3.3432E-9 
+RD=12.00       VTO=2.57        VMAX=1.0E7         ETA=0.0223089 
+NFS=6.6E10     TOX=1.0E-7      LD=1.698E-9        UO=862.425
+XJ=6.4666E-7   THETA=1.0E-5    CGSO=9.1798E-9     L=2.5E-6
+W=2.4E-2)  

* *VN10K MODEL
*  
.MODEL VN10K    NMOS (LEVEL=3   RS=0.205           NSUB=1.0E15  
+DELTA=0.1      KAPPA=0.0506    TPG=1              CGDO=3.1716E-9 