*****
* MPBJT.LIB Spectrum Software Bill Steele
*****
*** NPN 4A 55V
.MODEL 2N3054 NPN (BF=153.47597185664 BR=20.074543923541m CJC=155.090027333211p
+ CJE=263.770948388189p FC=500.000000689595m IKF=607.618021810564m
+ IKR=996.576438476171 IS=9.515713199252f ISC=98.555827968388p
+ ISE=926.908248229621f ITF=11.269234820254m MJC=300.000000042459m
+ MJE=456.861753457561m NC=2.000000003546 NE=1.237073149436
+ NF=839.313185444086m RE=170.212781532508m TF=42.071825791901n
+ TR=95.78145725923u VAF=100 VJC=700.000000011081m VJE=951.9599378471m
+ VTF=10.000000025208 XTF=499.99979770608m)
*** NPN 4A 55V
.MODEL 2N3054A NPN (BF=153.47597185664 BR=20.074543923541m
+ CJC=155.090027333211p CJE=263.770948388189p FC=500.000000689595m
+ IKF=607.618021810564m IKR=996.576438476171 IS=9.515713199252f
+ ISC=98.555827968388p ISE=926.908248229621f ITF=11.269234820254m
+ MJC=300.000000042459m MJE=456.861753457561m NC=2.000000003546
+ NE=1.237073149436 NF=839.313185444086m RE=170.212781532508m
+ TF=42.071825791901n TR=95.78145725923u VAF=100 VJC=700.000000011081m
+ VJE=951.9599378471m VTF=10.000000025208 XTF=499.99979770608m)
*** NPN 15A 60V
.MODEL 2N3055A NPN (BF=270.296090145107 BR=1.000000010767m
+ CJC=291.641045509903p CJE=501.999982363397p IKF=2.14332 IKR=10.000000445936m
+ IS=10.320472069268f ISC=99.9996p ISE=.000000208012f ITF=467.525969413682p
+ MJC=399.824326924171m MJE=531.887164864466m NC=2.000000005923
+ NE=615.576038043805m NF=848.945031884055m RC=30.930978501727m
+ RE=92.878898956575m TF=59.567523305522n TR=145.890713658539m VAF=100
+ VJC=700.01958693661m VJE=750.957730271836m VTF=10.002711491474
+ XTF=508.323610989927m)
*** NPN 3A 140V
.MODEL 2N3441 NPN (BF=404.826134323433 BR=4.999980838217 CJC=5p CJE=2p
+ IKF=49.9413m IKR=999.749912896211 IS=10.072394610147f ISC=411.698649728659f
+ ISE=.000000201145f ITF=10m MJC=500m MJE=500m NC=2.000000004335
+ NE=2.999973377505 NF=1.512929986153 RE=1.999999953105 TF=1n TR=10n VAF=100
+ VTF=10 XTF=500m)
*** NPN 10A 140V
.MODEL 2N3442 NPN (BF=267.105335760152 BR=4.999988756982 CJC=5p CJE=2p
+ IKF=523.051160815824m IKR=76.490821488311 IS=10.055888513862f
+ ISC=39.67754286554f ISE=1.202914231767p ITF=447.904034519576f MJC=500m
+ MJE=500m NC=2.000000002758 NE=1.744350362676 NF=977.484328413836m
+ RE=482.694329375647m TF=1.418258136775u TR=10n VAF=100 VTF=9.999605029532
+ XTF=500.947555843118m)
*** NPN 7.5A 60V
.MODEL 2N3447 NPN (BF=1.999998974092K BR=74.013786216872m CJC=5p CJE=2p
+ IKF=1.151836985964 IKR=999.506162092369m IS=10.004802437488f
+ ISC=85.234542555396p ISE=9.588654009907p ITF=10m MJC=500m MJE=500m
+ NC=2.000000001182 NE=1.584666767103 NF=1.003090013008 RC=96.839240264944m
+ RE=24.384831293035m TF=1n TR=10n VAF=100 VTF=10 XTF=500m)
*** NPN 1A 250V
.MODEL 2N3583 NPN (BF=165.274675794119 BR=6.632930532115m CJC=147.622254185072p
+ CJE=750.714947333303p FC=500.000000591082m IKF=188.42211535203m
+ IKR=327.12185106126 IS=32.446322794815f ISC=99.999957108478p
+ ISE=1.005936551408p ITF=970.587903968311f MJC=397.017213039397m
+ MJE=511.923372766915m NC=2.000000003587 NE=1.242575861124
+ NF=849.771187453965m RC=77.30919622468m RE=167.336137584082m
+ TF=2.863916554465n TR=846.146257197563u VAF=100 VJC=700.000000003284m
+ VJE=999.999999947759m VTF=10.281210139556 XTF=419.951324004194m)
*** NPN 2A 375V
.MODEL 2N3584 NPN (BF=165.274675794119 BR=6.632930532115m CJC=147.622254185072p
+ CJE=750.714947333303p FC=500.000000591082m IKF=188.42211535203m
+ IKR=327.12185106126 IS=32.446322794815f ISC=99.999957108478p
+ ISE=1.005936551408p ITF=970.587903968311f MJC=397.017213039397m
+ MJE=511.923372766915m NC=2.000000003587 NE=1.242575861124
+ NF=849.771187453965m RC=77.30919622468m RE=167.336137584082m
+ TF=2.863916554465n TR=846.146257197563u VAF=100 VJC=700.000000003284m
+ VJE=999.999999947759m VTF=10.281210139556 XTF=419.951324004194m)
*** NPN 2A 500V
.MODEL 2N3585 NPN (BF=165.274675794119 BR=6.632930532115m CJC=147.622254185072p
+ CJE=750.714947333303p FC=500.000000591082m IKF=188.42211535203m
+ IKR=327.12185106126 IS=32.446322794815f ISC=99.999957108478p
+ ISE=1.005936551408p ITF=970.587903968311f MJC=397.017213039397m
+ MJE=511.923372766915m NC=2.000000003587 NE=1.242575861124
+ NF=849.771187453965m RC=77.30919622468m RE=167.336137584082m
+ TF=2.863916554465n TR=846.146257197563u VAF=100 VJC=700.000000003284m
+ VJE=999.999999947759m VTF=10.281210139556 XTF=419.951324004194m)
*** NPN 10A 80V
.MODEL 2N3714 NPN (BF=1.154150354008K BR=12.741486934058m CJC=5p CJE=2p
+ IKF=182.929m IKR=1.423418800098 IS=10.485938419858f ISC=99.7599p
+ ISE=88.595709467355p ITF=31.038572366492u MJC=500m MJE=500m NC=2.000000005523
+ NE=1.414946243752 NF=772.729425134652m RE=101.066075058161m TF=1n
+ TR=152.22874342792u VAF=100 VTF=9.860198265661 XTF=31.993681162801)
*** NPN 10A 60V
.MODEL 2N3715 NPN (BF=259.827509065087 BR=96.625632858055m CJC=5p CJE=2p
+ IKF=992.817819716178m IKR=1.000387374011 IS=10.485938419858f
+ ISC=16.70523388239p ISE=964.301053413807f ITF=31.038572366492u MJC=500m
+ MJE=500m NC=2.000000002365 NE=1.135290867941 NF=772.729425134652m
+ RC=77.21953201487m RE=101.066075058161m TF=1n TR=22.032071122646u VAF=100
+ VTF=9.860198265661 XTF=31.993681162801)
*** NPN 10A 80V
.MODEL 2N3716 NPN (BF=259.827509065087 BR=96.625632858055m CJC=5p CJE=2p
+ IKF=992.817819716178m IKR=1.000387374011 IS=10.485938419858f
+ ISC=16.70523388239p ISE=964.301053413807f ITF=31.038572366492u MJC=500m
+ MJE=500m NC=2.000000002365 NE=1.135290867941 NF=772.729425134652m
+ RC=77.21953201487m RE=101.066075058161m TF=1n TR=22.032071122646u VAF=100
+ VTF=9.860198265661 XTF=31.993681162801)
*** NPN 1A 225V
.MODEL 2N3738 NPN (BF=101.639488319121 BR=100.120125725013m
+ CJC=283.530527632625p CJE=2p FC=500.000000297661m IKF=45.43246041825m
+ IKR=927.630853595767 IS=9.919195785807f ISC=1.048427802059p
+ ISE=51.085999336395f ITF=10.200269311817m MJC=533.645238329711m MJE=500m
+ NC=2.000000010741 NE=1.365709403405 NF=886.978758042777m RC=873.184749203489m
+ RE=180.276318964069m TF=12.659310958699n TR=10n VAF=100 VJC=700.000001206725m
+ VTF=9.999999948935 XTF=499.999084983712m)
*** NPN 1A 300V
.MODEL 2N3739 NPN (BF=101.639488319121 BR=100.120125725013m
+ CJC=283.530527632625p CJE=2p FC=500.000000297661m IKF=45.43246041825m
+ IKR=927.630853595767 IS=9.919195785807f ISC=1.048427802059p
+ ISE=51.085999336395f ITF=10.200269311817m MJC=533.645238329711m MJE=500m
+ NC=2.000000010741 NE=1.365709403405 NF=886.978758042777m RC=873.184749203489m
+ RE=180.276318964069m TF=12.659310958699n TR=10n VAF=100 VJC=700.000001206725m
+ VTF=9.999999948935 XTF=499.999084983712m)
*** NPN 4A 60V
.MODEL 2N3766 NPN (BF=139.887103739294 BR=25.594491049237m CJC=229.02315077479p
+ CJE=2p FC=500.000000295543m IKF=884.233943314442m IKR=988.143054116303
+ IS=9.940572747519f ISC=98.963831825712p ISE=963.950735678473f
+ ITF=34.009503927364m MJC=558.065806250867m MJE=500m NC=2.00035328006
+ NE=1.351237350897 NF=864.729159510466m RC=424.309994513737m
+ RE=188.910163076564m TF=12.63401233015n TR=10n VAF=100 VJC=700m
+ VTF=10.000004122272 XTF=500.03647174035m)
*** NPN 4A 80V
.MODEL 2N3767 NPN (BF=139.887103739294 BR=25.594491049237m CJC=229.02315077479p
+ CJE=2p FC=500.000000295543m IKF=884.233943314442m IKR=988.143054116303
+ IS=9.940572747519f ISC=98.963831825712p ISE=963.950735678473f
+ ITF=34.009503927364m MJC=558.065806250867m MJE=500m NC=2.00035328006
+ NE=1.351237350897 NF=864.729159510466m RC=424.309994513737m
+ RE=188.910163076564m TF=12.63401233015n TR=10n VAF=100 VJC=700m
+ VTF=10.000004122272 XTF=500.03647174035m)
*** NPN 30A 40V
.MODEL 2N3771 NPN (BF=619.362120626329 BR=5 CJC=1.148344008565n
+ CJE=1.920205887334n FC=500.000002061004m IKF=1.09530005638
+ IKR=996.610752522853 IS=10.002262765458f ISC=1.882745742819f ISE=100p
+ ITF=179.849868265268p MJC=449.769m MJE=517.281m NC=2.000000005517
+ NE=1.917027445586 NF=1.028433770913 RE=118.033988148344m TF=567.181770112184n
+ TR=.000218484396f VAF=100 VJC=996.510834328137m VJE=751.21974882351m
+ VTF=10.000001302269 XTF=500.097118258105m)
*** NPN 20A 60V
.MODEL 2N3772 NPN (BF=619.362120626329 BR=5 CJC=1.148344008565n
+ CJE=1.920205887334n FC=500.000002061004m IKF=1.09530005638
+ IKR=996.610752522853 IS=10.002262765458f ISC=1.882745742819f ISE=100p
+ ITF=179.849868265268p MJC=449.769m MJE=517.281m NC=2.000000005517
+ NE=1.917027445586 NF=1.028433770913 RE=118.033988148344m TF=567.181770112184n
+ TR=.000218484396f VAF=100 VJC=996.510834328137m VJE=751.21974882351m
+ VTF=10.000001302269 XTF=500.097118258105m)
*** NPN 16A 140V
.MODEL 2N3773 NPN (BF=525.468087979108 BR=99.5512m CJC=5p CJE=2p
+ IKF=999.825620548068m IKR=999.985338726517m IS=10.106062579522f
+ ISC=1.236569700406p ISE=100p ITF=10m MJC=500m MJE=500m NC=2.000000004579
+ NE=1.534912620241 NF=807.496937439632m RC=314.997690314186m
+ RE=52.887452883159m TF=1n TR=10n VAF=100 VTF=10 XTF=500m)
*** NPN 3.5A 400V
.MODEL 2N3902 NPN (BF=176.356735823918 BR=3.69574m CJC=624.394114710067p
+ CJE=2.015569036397n IKF=1 IKR=1 IS=10f ISC=99.97435802925p
+ ISE=98.387499342776p ITF=4.707796397425m MJC=477.132998205114m
+ MJE=344.105161241485m NC=2.000000006853 NE=1.586117119607
+ NF=925.204910017884m RC=242.624099308175m RE=78.018214108901m
+ TF=45.498744919616n TR=1.1m VAF=100 VJC=700.187716434702m VTF=10.000000760189
+ XTF=500.00502269597m)
*** NPN 5A 80V
.MODEL 2N4233A NPN (BF=163.640028865198 BR=10.589624237124m
+ CJC=209.661943847908p CJE=274.036349343215p FC=500.000000695559m
+ IKF=657.600183206123m IKR=10.000000548687m IS=9.859426510289f
+ ISC=.058907418062f ISE=948.216690178521f ITF=16.104937956725m
+ MJC=353.318130453951m MJE=393.759958557749m NC=2.000000004729
+ NE=1.228770585875 NF=835.871718436721m RC=6.323481264653m RE=87.872940250462m
+ TF=27.315680576493n TR=15.430910580917m VAF=100 VJC=700.000000047026m
+ VJE=700.002331561504m VTF=9.999998770922 XTF=500.001953041998m)
*** NPN 2A 500V
.MODEL 2N4240 NPN (BF=165.274675794119 BR=6.632930532115m CJC=147.622254185072p
+ CJE=750.714947333303p FC=500.000000591082m IKF=188.42211535203m
+ IKR=327.12185106126 IS=32.446322794815f ISC=99.999957108478p
+ ISE=1.005936551408p ITF=970.587903968311f MJC=397.017213039397m
+ MJE=511.923372766915m NC=2.000000003587 NE=1.242575861124
+ NF=849.771187453965m RC=77.30919622468m RE=167.336137584082m
+ TF=2.863916554465n TR=846.146257197563u VAF=100 VJC=700.000000003284m
+ VJE=999.999999947759m VTF=10.281210139556 XTF=419.951324004194m)
*** NPN 5A 120V
.MODEL 2N4347 NPN (BF=266.131927512963 BR=4.999997999453 CJC=5p CJE=2p
+ IKF=526.819735785766m IKR=842.414931710889 IS=10.003430057502f
+ ISC=2.200075945701f ISE=1.494956901128p ITF=27.043375904678m MJC=500m
+ MJE=500m NC=2.000000001182 NE=1.812150603688 NF=1.002159802596
+ RE=424.546975979237m TF=569.04680771517n TR=10n VAF=100 VTF=10.000007285784
+ XTF=499.980599708882m)
*** NPN 1A 80V
.MODEL 2N4912 NPN (BF=182.988120696521 BR=2.896141914532 CJC=458.046872959678p
+ CJE=2p FC=500.000000295542m IKF=277.066312997183m IKR=1.000857059355
+ IS=9.999933876483f ISC=71.863055988022p ISE=874.52534812749f
+ ITF=13.588007842774m MJC=558.066263724377m MJE=500m NC=2.000000001182
+ NE=1.588140596102 NF=998.349100340446m RE=467.619378645981m
+ TF=42.019683684814n TR=1.120753465315u VAF=100 VJC=700m VTF=9.999999514481
+ XTF=500.008197280986m)
*** NPN 3A 40V
.MODEL 2N4921 NPN (BF=167.796473513146 BR=69.5941412871m CJC=458.046872959678p
+ CJE=2p FC=500.000000295542m IKF=287.164995888702m IKR=996.180474608817
+ IS=12.258601497163f ISC=99.998453138635p ISE=1.013068096288p
+ ITF=2.835304283333m MJC=558.066263724377m MJE=500m NC=2.000000002756
+ NE=1.347211189829 NF=868.694746771083m RE=270.295240862738m
+ TF=42.02326072746n TR=35.091780017713u VAF=100 VJC=700m VTF=10.000000297906
+ XTF=499.997612092216m)
*** NPN 3A 60V
.MODEL 2N4922 NPN (BF=167.796473513146 BR=69.5941412871m CJC=458.046872959678p
+ CJE=2p FC=500.000000295542m IKF=287.164995888702m IKR=996.180474608817
+ IS=12.258601497163f ISC=99.998453138635p ISE=1.013068096288p
+ ITF=2.835304283333m MJC=558.066263724377m MJE=500m NC=2.000000002756
+ NE=1.347211189829 NF=868.694746771083m RE=270.295240862738m
+ TF=42.02326072746n TR=35.091780017713u VAF=100 VJC=700m VTF=10.000000297906
+ XTF=499.997612092216m)
*** NPN 3A 80V
.MODEL 2N4923 NPN (BF=167.796473513146 BR=69.5941412871m CJC=458.046872959678p
+ CJE=2p FC=500.000000295542m IKF=287.164995888702m IKR=996.180474608817
+ IS=12.258601497163f ISC=99.998453138635p ISE=1.013068096288p
+ ITF=2.835304283333m MJC=558.066263724377m MJE=500m NC=2.000000002756
+ NE=1.347211189829 NF=868.694746771083m RE=270.295240862738m
+ TF=42.02326072746n TR=35.091780017713u VAF=100 VJC=700m VTF=10.000000297906
+ XTF=499.997612092216m)
*** NPN 20A 150V
.MODEL 2N5038 NPN (BF=723.606799277768 BR=4.999999399001 CJC=5p CJE=2p
+ IKF=999.858589044727m IKR=990.393324803995 IS=10.034625056955f
+ ISC=4.185783242344f ISE=.000020351761f ITF=10m MJC=500m MJE=500m
+ NC=2.000000003941 NE=1.317269814777 NF=1.03091820189 RE=118.033989478428m
+ TF=1n TR=594.145340890501n VAF=100 VTF=10 XTF=500m)
*** NPN 20A 120V
.MODEL 2N5039 NPN (BF=613.459808156294 BR=4.999999849474 CJC=5p CJE=2p
+ IKF=998.821667976398m IKR=327.372746876932 IS=10.034625056955f
+ ISC=27.845639248289f ISE=.000016062943f ITF=10m MJC=500m MJE=500m
+ NC=2.000000002758 NE=1.241269740076 NF=1.03091820189 RE=118.033989478428m
+ TF=1n TR=642.33841841127n VAF=100 VTF=10 XTF=500m)
*** NPN 4A 40V
.MODEL 2N5190 NPN (BF=157.298357798132 BR=4.999999999431 CJC=313.590667781919p
+ CJE=323.157659796032p FC=500.02147111147m IKF=360.959776255887m
+ IKR=10.000000107675m IS=10.45364656368f ISC=.000453500291f
+ ISE=1.009898400707p ITF=11.823168600061n MJC=451.909753813793m
+ MJE=606.921701030568m NC=2.000000004335 NE=1.18286468238 NF=788.216793897172m
+ RC=1.762127908146 RE=173.775520901901m TF=62.991557318765n
+ TR=96.759435322863u VAF=100 VJC=700.000000088949m VJE=767.222852258059m
+ VTF=9.999482134543 XTF=502.610123787995m)
*** NPN 4A 60V
.MODEL 2N5191 NPN (BF=157.298357798132 BR=4.999999999431 CJC=313.590667781919p
+ CJE=323.157659796032p FC=500.02147111147m IKF=360.959776255887m
+ IKR=10.000000107675m IS=10.45364656368f ISC=.000453500291f
+ ISE=1.009898400707p ITF=11.823168600061n MJC=451.909753813793m
+ MJE=606.921701030568m NC=2.000000004335 NE=1.18286468238 NF=788.216793897172m
+ RC=1.762127908146 RE=173.775520901901m TF=62.991557318765n
+ TR=96.759435322863u VAF=100 VJC=700.000000088949m VJE=767.222852258059m
+ VTF=9.999482134543 XTF=502.610123787995m)
*** NPN 4A 80V
.MODEL 2N5192 NPN (BF=140.19131062026 BR=4.999999999755 CJC=313.590667781919p
+ CJE=323.157659796032p FC=500.02147111147m IKF=329.120824681413m
+ IKR=10.000000107675m IS=10.45364656368f ISC=.000077777317f
+ ISE=1.009902064599p ITF=11.823168600061n MJC=451.909753813793m
+ MJE=606.921701030568m NC=2.000000004331 NE=1.164617832569
+ NF=788.216793897172m RC=1.755316954047 RE=173.775520901901m
+ TF=62.991557318765n TR=270.85886747222u VAF=100 VJC=700.000000088949m
+ VJE=767.222852258059m VTF=9.999482134543 XTF=502.610123787995m)
*** NPN 30A 40V
.MODEL 2N5301 NPN (BF=509.319488832158 BR=2.408969361221 CJC=862.317336891508p
+ CJE=1.313203286165n FC=500.000000716009m IKF=1.208930674266
+ IKR=10.000000107675m IS=13.391559074547f ISC=.000123842431f
+ ISE=2.513025707222p ITF=5.514280799892n MJC=300.000000034113m
+ MJE=414.996597139998m NC=2.000000005096 NE=1.132519035163
+ NF=742.294243729767m RC=234.483929754415m RE=36.713842510766m
+ TF=63.017493684321n TR=1.105604683671m VAF=100 VJC=999.999877871934m
+ VJE=700.00000004828m VTF=9.999983109844 XTF=502.045952780366m)
*** NPN 30A 60V
.MODEL 2N5302 NPN (BF=509.319488832158 BR=2.408969361221 CJC=862.317336891508p
+ CJE=1.313203286165n FC=500.000000716009m IKF=1.208930674266
+ IKR=10.000000107675m IS=13.391559074547f ISC=.000123842431f
+ ISE=2.513025707222p ITF=5.514280799892n MJC=300.000000034113m
+ MJE=414.996597139998m NC=2.000000005096 NE=1.132519035163
+ NF=742.294243729767m RC=234.483929754415m RE=36.713842510766m
+ TF=63.017493684321n TR=1.105604683671m VAF=100 VJC=999.999877871934m
+ VJE=700.00000004828m VTF=9.999983109844 XTF=502.045952780366m)
*** NPN 20A 80V
.MODEL 2N5303 NPN (BF=509.319488832158 BR=2.408969361221 CJC=862.317336891508p
+ CJE=1.313203286165n FC=500.000000716009m IKF=1.208930674266
+ IKR=10.000000107675m IS=13.391559074547f ISC=.000123842431f
+ ISE=2.513025707222p ITF=5.514280799892n MJC=300.000000034113m
+ MJE=414.996597139998m NC=2.000000005096 NE=1.132519035163
+ NF=742.294243729767m RC=234.483929754415m RE=36.713842510766m
+ TF=63.017493684321n TR=1.105604683671m VAF=100 VJC=999.999877871934m
+ VJE=700.00000004828m VTF=9.999983109844 XTF=502.045952780366m)
*** NPN 5A 80V
.MODEL 2N5336 NPN (BF=558.293192506736 BR=16.891987096918m
+ CJC=413.058896673247p CJE=933.679059805491p FC=500.000004809833m
+ IKF=1.004107815901 IKR=1.43026487897 IS=9.937405829389f ISC=.007090372397f
+ ISE=1.005064248294p ITF=929.045678752081f MJC=395.680896023369m
+ MJE=337.631586927231m NC=2.000000004936 NE=1.259258403843
+ NF=824.839340881843m RC=12.282341517703m RE=39.56308643974m
+ TF=4.139868426966n TR=297.166980590681u VAF=100 VJC=751.44987384884m
+ VJE=800.661486801204m VTF=10.000362649545 XTF=505.693356451027m)
*** NPN 5A 80V
.MODEL 2N5337 NPN (BF=558.293192506736 BR=16.891987096918m
+ CJC=413.058896673247p CJE=933.679059805491p FC=500.000004809833m
+ IKF=1.004107815901 IKR=1.43026487897 IS=9.937405829389f ISC=.007090372397f
+ ISE=1.005064248294p ITF=929.045678752081f MJC=395.680896023369m
+ MJE=337.631586927231m NC=2.000000004936 NE=1.259258403843
+ NF=824.839340881843m RC=12.282341517703m RE=39.56308643974m
+ TF=4.139868426966n TR=297.166980590681u VAF=100 VJC=751.44987384884m
+ VJE=800.661486801204m VTF=10.000362649545 XTF=505.693356451027m)
*** NPN 5A 100V
.MODEL 2N5338 NPN (BF=558.293192506736 BR=16.891987096918m
+ CJC=413.058896673247p CJE=933.679059805491p FC=500.000004809833m
+ IKF=1.004107815901 IKR=1.43026487897 IS=9.937405829389f ISC=.007090372397f
+ ISE=1.005064248294p ITF=929.045678752081f MJC=395.680896023369m
+ MJE=337.631586927231m NC=2.000000004936 NE=1.259258403843
+ NF=824.839340881843m RC=12.282341517703m RE=39.56308643974m
+ TF=4.139868426966n TR=297.166980590681u VAF=100 VJC=751.44987384884m
+ VJE=800.661486801204m VTF=10.000362649545 XTF=505.693356451027m)
*** NPN 5A 100V
.MODEL 2N5339 NPN (BF=558.293192506736 BR=16.891987096918m
+ CJC=413.058896673247p CJE=933.679059805491p FC=500.000004809833m
+ IKF=1.004107815901 IKR=1.43026487897 IS=9.937405829389f ISC=.007090372397f
+ ISE=1.005064248294p ITF=929.045678752081f MJC=395.680896023369m
+ MJE=337.631586927231m NC=2.000000004936 NE=1.259258403843
+ NF=824.839340881843m RC=12.282341517703m RE=39.56308643974m
+ TF=4.139868426966n TR=297.166980590681u VAF=100 VJC=751.44987384884m
+ VJE=800.661486801204m VTF=10.000362649545 XTF=505.693356451027m)
*** NPN 7A 80V
.MODEL 2N5428 NPN (BF=657.958317984861 BR=16.721266136779m
+ CJC=546.980756038375p CJE=933.679059805491p FC=500.000000492734m
+ IKF=999.370947310364m IKR=10.000000055072m IS=10.373289527144f
+ ISC=99.827255747014p ISE=1.006866140441p ITF=26.452945729395n
+ MJC=498.606867813605m MJE=337.631586927231m NC=2.000000005614
+ NE=1.254565295167 NF=824.341041445586m RE=43.481133947616m TF=4.139939966199n
+ TR=36.450846068483m VAF=100 VJC=749.845892519039m VJE=800.661486801204m
+ VTF=10.000347303956 XTF=505.707128732462m)
*** NPN 7A 100V
.MODEL 2N5429 NPN (BF=657.958317984861 BR=16.721266136779m
+ CJC=546.980756038375p CJE=933.679059805491p FC=500.000000492734m
+ IKF=999.370947310364m IKR=10.000000055072m IS=10.373289527144f
+ ISC=99.827255747014p ISE=1.006866140441p ITF=26.452945729395n
+ MJC=498.606867813605m MJE=337.631586927231m NC=2.000000005614
+ NE=1.254565295167 NF=824.341041445586m RE=43.481133947616m TF=4.139939966199n
+ TR=36.450846068483m VAF=100 VJC=749.845892519039m VJE=800.661486801204m
+ VTF=10.000347303956 XTF=505.707128732462m)
*** NPN 7A 100V
.MODEL 2N5430 NPN (BF=657.958317984861 BR=16.721266136779m
+ CJC=546.980756038375p CJE=933.679059805491p FC=500.000000492734m
+ IKF=999.370947310364m IKR=10.000000055072m IS=10.373289527144f
+ ISC=99.827255747014p ISE=1.006866140441p ITF=26.452945729395n
+ MJC=498.606867813605m MJE=337.631586927231m NC=2.000000005614
+ NE=1.254565295167 NF=824.341041445586m RE=43.481133947616m TF=4.139939966199n
+ TR=36.450846068483m VAF=100 VJC=749.845892519039m VJE=800.661486801204m
+ VTF=10.000347303956 XTF=505.707128732462m)
*** NPN 16A 100V
.MODEL 2N5629 NPN (BF=410.800312678383 BR=476.512485054534m
+ CJC=678.020687266893p CJE=877.351277561888p FC=500.000469770526m
+ IKF=1.356595591877 IKR=1.000278179782 IS=10.03408946913f ISC=31.224743805672p
+ ISE=2.342349096904p ITF=66.977393583517m MJC=366.021941762633m
+ MJE=462.377052214251m NC=2.000000001182 NE=1.461746919394
+ NF=961.031983033127m RE=80.891339580945m TF=126.134066977312n
+ TR=32.204205162429u VAF=100 VJC=700.00000008498m VJE=700.000692233851m
+ VTF=9.999998217112 XTF=499.980179365577m)
*** NPN 16A 120V
.MODEL 2N5630 NPN (BF=410.800312678383 BR=476.512485054534m
+ CJC=678.020687266893p CJE=877.351277561888p FC=500.000469770526m
+ IKF=1.356595591877 IKR=1.000278179782 IS=10.03408946913f ISC=31.224743805672p
+ ISE=2.342349096904p ITF=66.977393583517m MJC=366.021941762633m
+ MJE=462.377052214251m NC=2.000000001182 NE=1.461746919394
+ NF=961.031983033127m RE=80.891339580945m TF=126.134066977312n
+ TR=32.204205162429u VAF=100 VJC=700.00000008498m VJE=700.000692233851m
+ VTF=9.999998217112 XTF=499.980179365577m)
*** NPN 16A 140V
.MODEL 2N5631 NPN (BF=410.800312678383 BR=476.512485054534m
+ CJC=678.020687266893p CJE=877.351277561888p FC=500.000469770526m
+ IKF=1.356595591877 IKR=1.000278179782 IS=10.03408946913f ISC=31.224743805672p
+ ISE=2.342349096904p ITF=66.977393583517m MJC=366.021941762633m
+ MJE=462.377052214251m NC=2.000000001182 NE=1.461746919394
+ NF=961.031983033127m RE=80.891339580945m TF=126.134066977312n
+ TR=32.204205162429u VAF=100 VJC=700.00000008498m VJE=700.000692233851m
+ VTF=9.999998217112 XTF=499.980179365577m)
*** NPN 0.5A 250V
.MODEL 2N5655 NPN (BF=845.395588736016 BR=5.210387506018m CJC=47.694915987221p
+ CJE=212.863022576682p IKF=50.2742m IKR=317.997603433311 IS=9.942186321696f
+ ISC=98.747p ISE=1.002653724222p ITF=10.302679633339m MJC=322.21513134005m
+ MJE=393.9370912041m NC=2.000000006345 NE=1.333980488553 NF=885.206266987501m
+ RC=1.130719345506 RE=195.380717992475m TF=12.694529795389n TR=1.28623004294m
+ VAF=100 VJC=700.001395454713m VJE=997.420758004823m VTF=10.000000171169
+ XTF=499.996270194653m)
*** NPN 0.5A 300V
.MODEL 2N5656 NPN (BF=845.395588736016 BR=5.210387506018m CJC=47.694915987221p
+ CJE=212.863022576682p IKF=50.2742m IKR=316.833960804212 IS=9.942186321696f
+ ISC=98.74701764237p ISE=1.002653724222p ITF=10.302679633339m
+ MJC=322.21513134005m MJE=393.9370912041m NC=2.000000007991 NE=1.333980488553
+ NF=885.206266987501m RC=1.130719345486 RE=195.380717992475m
+ TF=12.694529795389n TR=1.28623004294m VAF=100 VJC=700.001395454713m
+ VJE=997.420758004823m VTF=10.000000171169 XTF=499.996270194653m)
*** NPN 0.5A 350V
.MODEL 2N5657 NPN (BF=845.395588736016 BR=5.210387506018m CJC=47.694915987221p
+ CJE=212.863022576682p IKF=50.2742m IKR=317.997603433311 IS=9.942186321696f
+ ISC=98.747p ISE=1.002653724222p ITF=10.302679633339m MJC=322.21513134005m
+ MJE=393.9370912041m NC=2.000000006345 NE=1.333980488553 NF=885.206266987501m
+ RC=1.130719345506 RE=195.380717992475m TF=12.694529795389n TR=1.28623004294m
+ VAF=100 VJC=700.001395454713m VJE=997.420758004823m VTF=10.000000171169
+ XTF=499.996270194653m)
*** NPN 50A 60V
.MODEL 2N5685 NPN (BF=432.794090512226 BR=101.166m CJC=1.987510581564n
+ CJE=3.288709167091n FC=500.000000693448m IKF=2.112532275837
+ IKR=1.000136202341 IS=10.124704451991f ISC=3.37672756308p ISE=99.9604p
+ ITF=2.587848107024n MJC=337.217m MJE=442.57m NC=2.000000005918
+ NE=1.341332148473 NF=717.464001008838m RC=250.364099270036m
+ RE=24.588549396216m TF=63.022180137943n TR=577.174396541248u VAF=100
+ VJC=700.000000008577m VJE=700.000000000284m VTF=9.999947479178
+ XTF=502.200240753379m)
*** NPN 50A 80V
.MODEL 2N5686 NPN (BF=432.794090512226 BR=101.166m CJC=1.987510581564n
+ CJE=3.288709167091n FC=500.000000693448m IKF=2.112532275837
+ IKR=1.000136202341 IS=10.124704451991f ISC=3.37672756308p ISE=99.9604p
+ ITF=2.587848107024n MJC=337.217m MJE=442.57m NC=2.000000005918
+ NE=1.341332148473 NF=717.464001008838m RC=250.364099270036m
+ RE=24.588549396216m TF=63.022180137943n TR=577.174396541248u VAF=100
+ VJC=700.000000008577m VJE=700.000000000284m VTF=9.999947479178
+ XTF=502.200240753379m)
*** NPN 6A 100V
.MODEL 2N5758 NPN (BF=163.468242414184 BR=128.952091586264m
+ CJC=273.014344816736p CJE=367.064843793947p FC=500.000001717717m
+ IKF=937.379490902813m IKR=1.354544920161 IS=9.998960669542f
+ ISC=.000464823304f ISE=417.587887379883f ITF=17.534303593471m
+ MJC=365.776113933852m MJE=499.432904139305m NC=2.000000001181
+ NE=1.684247214396 NF=989.305453935389m RC=45.203090965144m
+ RE=215.682170581991m TF=125.919610663798n TR=53.608680689651u VAF=100
+ VJC=700.000000377886m VJE=999.904859798876m VTF=10.000001065585
+ XTF=500.008333900504m)
*** NPN 6A 140V
.MODEL 2N5760 NPN (BF=163.468242414184 BR=128.952091586264m
+ CJC=273.014344816736p CJE=367.064843793947p FC=500.000001717717m
+ IKF=937.379490902813m IKR=1.354544920161 IS=9.998960669542f
+ ISC=.000464823304f ISE=417.587887379883f ITF=17.534303593471m
+ MJC=365.776113933852m MJE=499.432904139305m NC=2.000000001181
+ NE=1.684247214396 NF=989.305453935389m RC=45.203090965144m
+ RE=215.682170581991m TF=125.919610663798n TR=53.608680689651u VAF=100
+ VJC=700.000000377886m VJE=999.904859798876m VTF=10.000001065585
+ XTF=500.008333900504m)
*** NPN 10A 60V
.MODEL 2N5877 NPN (BF=824.700796295393 BR=522.600361871713m
+ CJC=388.105562749749p CJE=618.4347278301p FC=500.000000492738m
+ IKF=1.186582488745 IKR=1.042521491417 IS=9.98965981984f ISC=12.451814745973f
+ ISE=14.227491613221f ITF=12.011452071315m MJC=500.579121786926m
+ MJE=431.888324364988m NC=2.000000001182 NE=1.202248583323
+ NF=988.509882183973m RE=160.088381140199m TF=31.419492037223n
+ TR=6.76733228813u VAF=100 VJC=749.975190912833m VJE=700.00000014513m
+ VTF=9.999999967597 XTF=499.998605954555m)
*** NPN 10A 80V
.MODEL 2N5878 NPN (BF=824.700796295393 BR=522.600361871713m
+ CJC=388.105562749749p CJE=618.4347278301p FC=500.000000492738m
+ IKF=1.186582488745 IKR=1.042521491417 IS=9.98965981984f ISC=12.451814745973f
+ ISE=14.227491613221f ITF=12.011452071315m MJC=500.579121786926m
+ MJE=431.888324364988m NC=2.000000001182 NE=1.202248583323
+ NF=988.509882183973m RE=160.088381140199m TF=31.419492037223n
+ TR=6.76733228813u VAF=100 VJC=749.975190912833m VJE=700.00000014513m
+ VTF=9.999999967597 XTF=499.998605954555m)
*** NPN 15A 60V
.MODEL 2N5881 NPN (BF=297.145768523815 BR=99.850624294312m
+ CJC=594.638489759077p CJE=1.441966937676n FC=500.000000886623m
+ IKF=1.001425313972 IKR=1.0000071354 IS=9.889435833841f ISC=1.095829967622p
+ ISE=1.016187425787p ITF=28.457759137618m MJC=321.607920783975m
+ MJE=529.888561243777m NC=2.000000002967 NE=1.159035369889
+ NF=774.553683773749m RC=295.224690807809m RE=53.987819737326m
+ TF=31.50636938785n TR=100.528625736914u VAF=100 VJC=700.000000063484m
+ VJE=749.938809318164m VTF=10.000000189985 XTF=500.002292106796m)
*** NPN 15A 80V
.MODEL 2N5882 NPN (BF=297.145768523815 BR=99.850624294312m
+ CJC=594.638489759077p CJE=1.441966937676n FC=500.000000886623m
+ IKF=1.001425313972 IKR=1.0000071354 IS=9.889435833841f ISC=1.095829967622p
+ ISE=1.016187425787p ITF=28.457759137618m MJC=321.607920783975m
+ MJE=529.888561243777m NC=2.000000002967 NE=1.159035369889
+ NF=774.553683773749m RC=295.224690807809m RE=53.987819737326m
+ TF=31.50636938785n TR=100.528625736914u VAF=100 VJC=700.000000063484m
+ VJE=749.938809318164m VTF=10.000000189985 XTF=500.002292106796m)
*** NPN 25A 60V
.MODEL 2N5885 NPN (BF=542.935686192814 BR=98.213149801295m
+ CJC=930.770331937571p CJE=1.665578738253n FC=500.000002460333m
+ IKF=1.00260530497 IKR=1.03815153638 IS=19.803791049265f ISC=.000020433215f
+ ISE=99.950580242629p ITF=28.514069630963m MJC=358.033928999689m
+ MJE=485.210311159346m NC=2.000000009682 NE=1.417038829518
+ NF=774.379014795948m RC=181.138388099138m RE=39.161356238168m
+ TF=31.506811206227n TR=98.855921519053u VAF=100 VJC=999.999997764903m
+ VJE=750.191388330012m VTF=9.999999872262 XTF=500.001907326544m)
*** NPN 25A 80V
.MODEL 2N5886 NPN (BF=542.935686192814 BR=98.213149801295m
+ CJC=930.770331937571p CJE=1.665578738253n FC=500.000002460333m
+ IKF=1.00260530497 IKR=1.03815153638 IS=19.803791049265f ISC=.000020433215f
+ ISE=99.950580242629p ITF=28.514069630963m MJC=358.033928999689m
+ MJE=485.210311159346m NC=2.000000009682 NE=1.417038829518
+ NF=774.379014795948m RC=181.138388099138m RE=39.161356238168m
+ TF=31.506811206227n TR=98.855921519053u VAF=100 VJC=999.999997764903m
+ VJE=750.191388330012m VTF=9.999999872262 XTF=500.001907326544m)
*** NPN 12A 60V
.MODEL 2N5989 NPN (BF=309.543913123978 BR=106.881598599598m
+ CJC=426.840760308314p CJE=800.182819654186p FC=500.000000924052m
+ IKF=1.242645713325 IKR=10.00000001267m IS=22.096558869913f ISC=.000165148307f
+ ISE=11.588932847403p ITF=457.336198404554f MJC=414.743278121259m
+ MJE=473.325487411258m NC=2.000000003546 NE=1.283956647191
+ NF=789.176946079505m RC=2.700344499814m RE=55.259009875769m
+ TF=63.016713601847n TR=4.928576401567m VAF=100 VJC=997.055816965203m
+ VJE=700.000000107833m VTF=9.999851557083 XTF=501.031174251291m)
*** NPN 12A 100V
.MODEL 2N5991 NPN (BF=309.543913123978 BR=106.881598599598m
+ CJC=426.840760308314p CJE=800.182819654186p FC=500.000000924052m
+ IKF=1.242645713325 IKR=10.00000001267m IS=22.096558869913f ISC=.000165148307f
+ ISE=11.588932847403p ITF=457.336198404554f MJC=414.743278121259m
+ MJE=473.325487411258m NC=2.000000003546 NE=1.283956647191
+ NF=789.176946079505m RC=2.700344499814m RE=55.259009875769m
+ TF=63.016713601847n TR=4.928576401567m VAF=100 VJC=997.055816965203m
+ VJE=700.000000107833m VTF=9.999851557083 XTF=501.031174251291m)
*** NPN 4A 45V