*** NXP Complex Discretes ***

*
.SUBCKT BC817DPN 1 2 3 4 5 6
*
Q1 6 2 1 TR1
Q2 3 5 4 TR2
*
.MODEL TR1 NPN 
+ IS = 4.13E-14 
+ NF = 0.9822 
+ ISE = 3.534E-15 
+ NE = 1.35 
+ BF = 292.4 
+ IKF = 0.9 
+ VAF = 145.7 
+ NR = 0.982 
+ ISC = 1.957E-13 
+ NC = 1.3 
+ BR = 23.68 
+ IKR = 0.1 
+ VAR = 20 
+ RB = 60 
+ IRB = 0.0002 
+ RBM = 8 
+ RE = 0.1129 
+ RC = 0.25 
+ XTB = 0 
+ EG = 1.11 
+ XTI = 3 
+ CJE = 3.799E-11 
+ VJE = 0.6752 
+ MJE = 0.3488 
+ TF = 5.4E-10 
+ XTF = 4 
+ VTF = 4.448 
+ ITF = 0.665 
+ PTF = 90 
+ CJC = 1.355E-11 
+ VJC = 0.3523 
+ MJC = 0.3831 
+ XCJC = 0.455 
+ TR = 3E-08 
+ CJS = 0 
+ VJS = 0.75 
+ MJS = 0.333 
+ FC = 0.643
*
.MODEL TR2 PNP
+ IS=1.08E-13
+ NF=0.99
+ ISE=2.713E-14
+ NE=1.4
+ BF=385.7
+ IKF=0.3603
+ VAF=31.29
+ NR=0.9849
+ ISC=5.062E-13
+ NC=1.295
+ BR=20.57
+ IKR=0.054
+ VAR=11.62
+ RB=40
+ IRB=1E-06
+ RBM=5
+ RE=0.1415
+ RC=0.2623
+ XTB=0
+ EG=1.11
+ XTI=3
+ CJE=5.114E-11
+ VJE=0.8911
+ MJE=0.4417
+ TF=7.359E-10
+ XTF=1.859
+ VTF=3.813
+ ITF=0.4393
+ PTF=0
+ CJC=2.656E-11
+ VJC=0.62
+ MJC=0.4836
+ XCJC=0.459
+ TR=5.00E-08
+ CJS=0
+ VJS=0.75
+ MJS=0.333
+ FC=0.99
.ENDS

*
.SUBCKT BC817DS 1 2 3 4 5 6
*
Q1 6 2 1 BC817DS
Q2 3 5 4 BC817DS
*
.MODEL BC817DS NPN 
+    IS = 4.13E-14 
+    NF = 0.9822 
+    ISE = 3.534E-15 
+    NE = 1.35 
+    BF = 292.4 
+    IKF = 0.9 
+    VAF = 145.7 
+    NR = 0.982 
+    ISC = 1.957E-13 
+    NC = 1.3 
+    BR = 23.68 
+    IKR = 0.1 
+    VAR = 20 
+    RB = 60 
+    IRB = 0.0002 
+    RBM = 8 
+    RE = 0.1129 
+    RC = 0.25 
+    XTB = 0 
+    EG = 1.11 
+    XTI = 3 
+    CJE = 3.799E-11 
+    VJE = 0.6752 
+    MJE = 0.3488 
+    TF = 5.4E-10 
+    XTF = 4 
+    VTF = 4.448 
+    ITF = 0.665 
+    PTF = 90 
+    CJC = 1.355E-11 
+    VJC = 0.3523 
+    MJC = 0.3831 
+    XCJC = 0.455 
+    TR = 3E-08 
+    CJS = 0 
+    VJS = 0.75 
+    MJS = 0.333 
+    FC = 0.643
.ENDS

*
.SUBCKT BCM61B 1 2 3 4
*
* NPN current mirror in SOT143
*
Q1 2 1 3 TR1
Q2 1 1 4 TR1
*
.MODEL TR1 NPN
+     IS = 1.822E-14 
+     NF = 0.9932 
+     ISE = 2.894E-16 
+     NE = 1.4 
+     BF = 324.4 
+     IKF = 0.109 
+     VAF = 82 
+     NR = 0.9931 
+     ISC = 9.982E-12 
+     NC = 1.763 
+     BR = 8.29 
+     IKR = 0.09 
+     VAR = 17.9 
+     RB = 10 
+     IRB = 5E-06 
+     RBM = 5 
+     RE = 0.649 
+     RC = 0.7014 
+     CJE = 1.244E-11 
+     VJE = 0.7579 
+     MJE = 0.3656 
+     TF = 4.908E-10 
+     XTF = 9.51 
+     VTF = 2.927 
+     ITF = 0.3131 
+     PTF = 0 
+     CJC = 3.347E-12 
+     VJC = 0.5463 
+     MJC = 0.391 
+     XCJC = 0.6193 
+     TR = 9E-08 
+     CJS = 0 
+     VJS = 0.75 
+     MJS = 0.333 
+     XTB = 0 
+     XTI = 3 
+     EG = 1.11 
+     FC = 0.979
.ENDS
*

*
.SUBCKT BCM62B 1 2 3 4
*
* PNP current mirror in SOT143
*
Q1 2 1 3 TR1
Q2 1 1 4 TR1
*
.MODEL TR1 PNP
+     IS = 2.014E-14 
+     NF = 0.9974 
+     ISE = 6.578E-15 
+     NE = 1.45 
+     BF = 315.3 
+     IKF = 0.079 
+     VAF = 39.15 
+     NR = 0.9952 
+     ISC = 1.633E-14 
+     NC = 1.15 
+     BR = 8.68 
+     IKR = 0.09 
+     VAR = 9.5 
+     RB = 10 
+     IRB = 5E-06 
+     RBM = 5E-06 
+     RE = 0.663 
+     RC = 0.718 
+     XTB = 0 
+     EG = 1.11 
+     XTI = 3 
+     CJE = 1.135E-11 
+     VJE = 0.7071 
+     MJE = 0.3808 
+     TF = 6.546E-10 
+     XTF = 5.387 
+     VTF = 6.245 
+     ITF = 0.2108 
+     PTF = 0 
+     CJC = 6.395E-12 
+     VJC = 0.4951 
+     MJC = 0.44 
+     XCJC = 0.6288 
+     TR = 5.5E-08 
+     CJS = 0 
+     VJS = 0.75 
+     MJS = 0.333  
+     FC = 0.9059
.ENDS
*

*
.SUBCKT BCM847BV 1 2 3 4 5 6
*
* 2 matched NPN Transistors in SOT666
*
Q1 6 2 1 TR1
Q2 3 5 4 TR1
*
.MODEL TR1 NPN
+     IS = 1.822E-14 
+     NF = 0.9932 
+     ISE = 2.894E-16 
+     NE = 1.4 
+     BF = 324.4 
+     IKF = 0.109 
+     VAF = 82 
+     NR = 0.9931 
+     ISC = 9.982E-12 
+     NC = 1.763 
+     BR = 8.29 
+     IKR = 0.09 
+     VAR = 17.9 
+     RB = 10 
+     IRB = 5E-06 
+     RBM = 5 
+     RE = 0.649 
+     RC = 0.7014 
+     CJE = 1.244E-11 
+     VJE = 0.7579 
+     MJE = 0.3656 
+     TF = 4.908E-10 
+     XTF = 9.51 
+     VTF = 2.927 
+     ITF = 0.3131 
+     PTF = 0 
+     CJC = 3.347E-12 
+     VJC = 0.5463 
+     MJC = 0.391 
+     XCJC = 0.6193 
+     TR = 9E-08 
+     CJS = 0 
+     VJS = 0.75 
+     MJS = 0.333 
+     XTB = 0 
+     XTI = 3 
+     EG = 1.11 
+     FC = 0.979
.ENDS
*

*
.SUBCKT BCM857BV 1 2 3 4 5 6
*
* 2 PNP Transistors in SOT666
*
Q1 6 2 1 TR1
Q2 3 5 4 TR1
*
.MODEL TR1 PNP
+ IS = 2.014E-14 
+ NF = 0.9974 
+ E = 6.578E-15 
+ NE = 1.45 
+ BF = 315.3 
+ IKF = 0.079 
+ VAF = 39.15 
+ NR = 0.9952 
+ ISC = 1.633E-14 
+ NC = 1.15 
+ BR = 8.68 
+ IKR = 0.09 
+ VAR = 9.5 
+ RB = 10 
+ IRB = 5E-06 
+ RBM = 5E-06 
+ RE = 0.663 
+ RC = 0.718 
+ XTB = 0 
+ EG = 1.11 
+ XTI = 3 
+ CJE = 1.135E-11 
+ VJE = 0.7071 
+ MJE = 0.3808 
+ TF = 6.546E-10 
+ XTF = 5.387 
+ VTF = 6.245 
+ ITF = 0.2108 
+ PTF = 0 
+ CJC = 6.395E-12 
+ VJC = 0.4951 
+ MJC = 0.44 
+ XCJC = 0.6288 
+ TR = 5.5E-08 
+ CJS = 0 
+ VJS = 0.75 
+ MJS = 0.333  
+ FC = 0.9059
.ENDS
*

*
.SUBCKT PBLS2001S 1 2 3 4 5 6 7 8
*
R1 1 11 2.2E+03
Cres1 1 7 4.8E-13 
R21 11 22 1.1E+03 
R22 22 2 1.1E+03
Cres2 22 7 1.5E-13
R3 5 6 0
R4 7 8 0
*
Q1 5 3 4 TR1
Q2 7 11 2 TR2
*
.MODEL TR1 PNP 
+ IS = 9.07E-13 
+ NF = 0.9965 
+ ISE = 1.41E-14 
+ NE = 1.329 
+ BF = 412 
+ IKF = 2.8 
+ VAF = 20 
+ NR = 0.9963 
+ ISC = 2.47E-14 
+ NC = 1.168 
+ BR = 250 
+ IKR = 0.53 
+ VAR = 11 
+ RB = 12 
+ IRB = 0.001 
+ RBM = 4.6 
+ RE = 0.035 
+ RC = 0.026 
+ XTB = 0 
+ EG = 1.11 
+ XTI = 3 
+ CJE = 2.793E-10 
+ VJE = 0.9448 
+ MJE = 0.4405 
+ TF = 1.15E-09 
+ XTF = 30 
+ VTF = 0.6 
+ ITF = 1.7 
+ PTF = 0 
+ CJC = 1.258E-10 
+ VJC = 0.5079 
+ MJC = 0.349 
+ XCJC = 1 
+ TR = 1.3E-08 
+ CJS = 0 
+ VJS = 0.75 
+ MJS = 0.333 
+ FC = 0.78
*
.MODEL TR2 NPN 
+ IS = 1.822E-14 
+ NF = 0.9932 
+ ISE = 2.894E-16 
+ NE = 1.4 
+ BF = 354.4 
+ IKF = 0.246 
+ VAF = 182 
+ NR = 0.9931 
+ ISC = 9.982E-12 
+ NC = 1.763 
+ BR = 14.99 
+ IKR = 0.05
+ VAR = 17.9 
+ RB = 10 
+ IRB = 5E-06 
+ RBM = 5 
+ RE = 0.649 
+ RC = 1.101 
+ XTB = 0 
+ EG = 1.11 
+ XTI = 3 
+ CJE = 1.32E-11 
+ VJE = 0.8401 
+ MJE = 0.3622 
+ TF = 1E-32 
+ XTF = 0 
+ VTF = 1E+03 
+ ITF = 0 
+ PTF = 0 
+ CJC = 3.821E-12 
+ VJC = 0.5986 
+ MJC = 0.3745 
+ XCJC = 0.6193 
+ TR = 1E-32
+ CJS = 0 
+ VJS = 0.75 
+ MJS = 0.333 
+ FC = 0.5
.ENDS
*

*
.SUBCKT PBLS2002S 1 2 3 4 5 6 7 8
*
R1 1 11 4.7E+03
Cres1 1 7 4.3E-13 
R21 11 22 2.35E+03 
R22 22 2 2.35E+03
Cres2 22 7 1.4E-13
R3 5 6 0
R4 7 8 0
*
Q1 5 3 4 TR1
Q2 7 11 2 TR2
*
.MODEL TR1 PNP 
+ IS = 9.07E-13 
+ NF = 0.9965 
+ ISE = 1.41E-14 
+ NE = 1.329 
+ BF = 412 
+ IKF = 2.8 
+ VAF = 20 
+ NR = 0.9963 
+ ISC = 2.47E-14 
+ NC = 1.168 
+ BR = 250 
+ IKR = 0.53 
+ VAR = 11 
+ RB = 12 
+ IRB = 0.001 
+ RBM = 4.6 
+ RE = 0.035 
+ RC = 0.026 
+ XTB = 0 
+ EG = 1.11 
+ XTI = 3 
+ CJE = 2.793E-10 
+ VJE = 0.9448 
+ MJE = 0.4405 
+ TF = 1.15E-09 
+ XTF = 30 
+ VTF = 0.6 
+ ITF = 1.7 
+ PTF = 0 
+ CJC = 1.258E-10 
+ VJC = 0.5079 
+ MJC = 0.349 
+ XCJC = 1 
+ TR = 1.3E-08 
+ CJS = 0 
+ VJS = 0.75 
+ MJS = 0.333 
+ FC = 0.78
*
.MODEL TR2 NPN 
+ IS = 1.822E-14 
+ NF = 0.9932 
+ ISE = 2.894E-16 
+ NE = 1.4 
+ BF = 354.4 
+ IKF = 0.246 
+ VAF = 182 
+ NR = 0.9931 
+ ISC = 9.982E-12 
+ NC = 1.763 
+ BR = 14.99 
+ IKR = 0.05
+ VAR = 17.9 
+ RB = 10 
+ IRB = 5E-06 
+ RBM = 5 
+ RE = 0.649 
+ RC = 1.101 
+ XTB = 0 
+ EG = 1.11 
+ XTI = 3 
+ CJE = 1.32E-11 
+ VJE = 0.8401 
+ MJE = 0.3622 
+ TF = 1E-32 
+ XTF = 0 
+ VTF = 1E+03 
+ ITF = 0 
+ PTF = 0 
+ CJC = 3.821E-12 
+ VJC = 0.5986 
+ MJC = 0.3745 
+ XCJC = 0.6193 
+ TR = 1E-32
+ CJS = 0 
+ VJS = 0.75 
+ MJS = 0.333 
+ FC = 0.5
.ENDS
*

*
.SUBCKT PBLS2003S 1 2 3 4 5 6 7 8
*
R1 1 11 1.0E+03
Cres1 1 7 4.4E-13 
R21 11 22 5.0E+03 
R22 22 2 5.0E+03
Cres2 22 7 1.3E-13
R3 5 6 0
R4 7 8 0
*
Q1 5 3 4 TR1
Q2 7 11 2 TR2
*
.MODEL TR1 PNP 
+ IS = 9.07E-13 
+ NF = 0.9965 
+ ISE = 1.41E-14 
+ NE = 1.329 
+ BF = 412 
+ IKF = 2.8 
+ VAF = 20 
+ NR = 0.9963 
+ ISC = 2.47E-14 
+ NC = 1.168 
+ BR = 250 
+ IKR = 0.53 
+ VAR = 11 
+ RB = 12 
+ IRB = 0.001 
+ RBM = 4.6 
+ RE = 0.035 
+ RC = 0.026 
+ XTB = 0 
+ EG = 1.11 
+ XTI = 3 
+ CJE = 2.793E-10 
+ VJE = 0.9448 
+ MJE = 0.4405 
+ TF = 1.15E-09 
+ XTF = 30 
+ VTF = 0.6 
+ ITF = 1.7 
+ PTF = 0 
+ CJC = 1.258E-10 
+ VJC = 0.5079 
+ MJC = 0.349 
+ XCJC = 1 
+ TR = 1.3E-08 
+ CJS = 0 
+ VJS = 0.75 
+ MJS = 0.333 
+ FC = 0.78
*
.MODEL TR2 NPN 
+ IS = 1.822E-14 
+ NF = 0.9932 
+ ISE = 2.894E-16 
+ NE = 1.4 
+ BF = 354.4 
+ IKF = 0.246 
+ VAF = 182 
+ NR = 0.9931 
+ ISC = 9.982E-12 
+ NC = 1.763 
+ BR = 14.99 
+ IKR = 0.05
+ VAR = 17.9 
+ RB = 10 
+ IRB = 5E-06 
+ RBM = 5 
+ RE = 0.649 
+ RC = 1.101 
+ XTB = 0 
+ EG = 1.11 
+ XTI = 3 
+ CJE = 1.32E-11 
+ VJE = 0.8401 
+ MJE = 0.3622 
+ TF = 1E-32 
+ XTF = 0 
+ VTF = 1E+03 
+ ITF = 0 
+ PTF = 0 
+ CJC = 3.821E-12 
+ VJC = 0.5986 
+ MJC = 0.3745 
+ XCJC = 0.6193 
+ TR = 1E-32
+ CJS = 0 
+ VJS = 0.75 
+ MJS = 0.333 
+ FC = 0.5
.ENDS
*

*
* PBSS4350SPN
* 2 BISS NPN/PNPin SOT96-1
*
.SUBCKT PBSS4350SPN 1 2 3 4 5 6 7 8
*
R1 5 6 1f 
R2 7 8 1f
*
Q1 8 2 1 T1
Q2 5 4 3 T2
*
.MODEL T1 NPN 
+ IS = 1.146E-12 
+ NF = 0.9958 
+ ISE = 2.959E-15 
+ NE = 1.188 
+ BF = 610 
+ IKF = 5 
+ VAF = 83 
+ NR = 0.995 
+ ISC = 1.991E-15 
+ NC = 1.283 
+ BR = 100 
+ IKR = 4.2 
+ VAR = 54 
+ RB = 14 
+ IRB = 0.0007 
+ RBM = 0.998 
+ RE = 0.044 
+ RC = 0.046 
+ XTB = 0 
+ EG = 1.11 
+ XTI = 3 
+ CJE = 3.185E-10 
+ VJE = 0.6753 
+ MJE = 0.3597 
+ TF = 7E-10 
+ XTF = 20 
+ VTF = 0.6 
+ ITF = 2 
+ PTF = 0 
+ CJC = 6.25E-11 
+ VJC = 0.5659 
+ MJC = 0.4359 
+ XCJC = 1 
+ TR = 3E-08 
+ CJS = 0 
+ VJS = 0.75 
+ MJS = 0.333 
+ FC = 0.78 
*
.MODEL T2 PNP 
+ IS = 7.26E-13 
+ NF = 0.9959 
+ ISE = 2.347E-14 
+ NE = 1.301 
+ BF = 400 
+ IKF = 1.9 
+ VAF = 35 
+ NR = 0.9955 
+ ISC = 1.092E-13 
+ NC = 1.199 
+ BR = 80 
+ IKR = 0.95 
+ VAR = 10 
+ RB = 9.9 
+ IRB = 0.00075 
+ RBM = 4.026 
+ RE = 0.035 
+ RC = 0.035 
+ XTB = 0 
+ EG = 1.11 
+ XTI = 3 
+ CJE = 2.613E-10 
+ VJE = 0.916 
+ MJE = 0.4323 
+ TF = 1.1E-09 
+ XTF = 23 
+ VTF = 0.8 
+ ITF = 1.3 
+ PTF = 0 
+ CJC = 8.272E-11 
+ VJC = 0.8025 
+ MJC = 0.4363 
+ XCJC = 1 
+ TR = 1.9E-08 
+ CJS = 0 
+ VJS = 0.75 
+ MJS = 0.333 
+ FC = 0.78 
.ENDS

*
* PBSS4350SS
* 2 BISS in SOT96-1
*
.SUBCKT PBSS4350SS 1 2 3 4 5 6 7 8
*
R1 5 6 1f 
R2 7 8 1f
*
Q1 8 2 1 T1
Q2 5 4 3 T1
*
.MODEL T1 NPN 
+ IS = 1.146E-12 
+ NF = 0.9958 
+ ISE = 2.959E-15 
+ NE = 1.188 
+ BF = 610 
+ IKF = 5 
+ VAF = 83 
+ NR = 0.995 
+ ISC = 1.991E-15 
+ NC = 1.283 
+ BR = 100 
+ IKR = 4.2 
+ VAR = 54 
+ RB = 14 
+ IRB = 0.0007 
+ RBM = 0.998 
+ RE = 0.044 
+ RC = 0.046 
+ XTB = 0 
+ EG = 1.11 
+ XTI = 3 
+ CJE = 3.185E-10 
+ VJE = 0.6753 
+ MJE = 0.3597 
+ TF = 7E-10 
+ XTF = 20 
+ VTF = 0.6 
+ ITF = 2 
+ PTF = 0 
+ CJC = 6.25E-11 
+ VJC = 0.5659 
+ MJC = 0.4359 
+ XCJC = 1 
+ TR = 3E-08 
+ CJS = 0 
+ VJS = 0.75 
+ MJS = 0.333 
+ FC = 0.78 
.ENDS

*
* PBSS5350SS
* 2 BISS in SOT96-1
*
.SUBCKT PBSS5350SS 1 2 3 4 5 6 7 8
*
R1 5 6 1f 
R2 7 8 1f
*
Q1 8 2 1 T1
Q2 5 4 3 T1
*
.MODEL T1 PNP 
+ IS = 7.26E-13 
+ NF = 0.9959 
+ ISE = 2.347E-14 
+ NE = 1.301 
+ BF = 400 
+ IKF = 1.9 
+ VAF = 35 
+ NR = 0.9955 
+ ISC = 1.092E-13 
+ NC = 1.199 
+ BR = 80 
+ IKR = 0.95 
+ VAR = 10 
+ RB = 9.9 
+ IRB = 0.00075 
+ RBM = 4.026 
+ RE = 0.035 
+ RC = 0.035 
+ XTB = 0 
+ EG = 1.11 
+ XTI = 3 
+ CJE = 2.613E-10 
+ VJE = 0.916 
+ MJE = 0.4323 
+ TF = 1.1E-09 
+ XTF = 23 
+ VTF = 0.8 
+ ITF = 1.3 
+ PTF = 0 
+ CJC = 8.272E-11 
+ VJC = 0.8025 
+ MJC = 0.4363 
+ XCJC = 1 
+ TR = 1.9E-08 
+ CJS = 0 
+ VJS = 0.75 
+ MJS = 0.333 
+ FC = 0.78 
.ENDS

*
.SUBCKT PIMN31 1 2 3 4 5 6
*
R1 2 22 1000 
Cres1 2 6 8E-14 
R21 22 11 5000 
R22 11 1 5000 
Cres2 11 6 3.76E-13 
*
R3 5 55 1000 
Cres3 5 3 87E-14 
R41 55 44 5000 
R42 44 4 5000 
Cres4 44 3 3.76E-13 
*
Q1 6 22 1 TD113Z
Q2 3 55 4 TD113Z
D1 22 6 Diode
D2 55 3 Diode
*
*The diodes do not reflect a 
*physical device but improve 
*only modeling in the reverse 
*mode of operation.
*
.MODEL TD113Z NPN 
+ IS = 1.451E-013 
+ NF = 0.9728 
+ ISE = 1.154E-014 
+ NE = 1.587 
+ BF = 390 
+ IKF = 2.8 
+ VAF = 90 
+ NR = 0.972 
+ ISC = 1E-019 
+ NC = 2 
+ BR = 62 
+ IKR = 1000 
+ VAR = 26 
+ RB = 15 
+ IRB = 0.0008 
+ RBM = 3.14 
+ RE = 0.085 
+ RC = 0.13 
+ XTB = 0 
+ EG = 1.11 
+ XTI = 3 
+ CJE = 1.077E-010 
+ VJE = 0.7015 
+ MJE = 0.3508 
+ TF = 5.4E-010 
+ XTF = 3.7 
+ VTF = 1.3 
+ ITF = 0.65 
+ PTF = 0 
+ CJC = 2.211E-011 
+ VJC = 0.5555 
+ MJC = 0.3983 
+ XCJC = 1 
+ TR = 3.45E-008 
+ CJS = 0 
+ VJS = 0.75 
+ MJS = 0.333 
+ FC = 0.85 
.MODEL DIODE D 
+ IS = 8.285E-015 
+ N = 1.03 
+ BV = 1000 
+ IBV = 0.001 
+ RS = 500 
+ CJO = 0 
+ VJ = 1 
+ M = 0.5 
+ FC = 0 
+ TT = 0 
+ EG = 1.11 
+ XTI = 3 
.ENDS
*

*
.SUBCKT PMD2001D 1 2 3 4 5 6
*
R1 2 3 0
R2 5 6 0
Q1 6 1 4 TR1
Q2 3 1 4 TR2
*
.MODEL TR1 NPN
+ IS=29.13E-15 
+ NF=992.6E-3 
+ ISE=9.652E-15 
+ NE=1.516  
+ BF=256.7  
+ IKF = 489.9E-3 
+ VAF = 80.99  
+ NR = 984.4E-3 
+ ISC = 320.3E-12 
+ NC = 1.608  
+ BR = 6.590  
+ IKR = 192.9E-3 
+ VAR = 101.2  
+ RB = 1.000  
+ IRB = 1.000E-3 
+ RBM = 1.000  
+ RE = 193.4E-3 
+ RC = 224.8E-3 
+ XTB = 0.000  
+ EG = 1.110  
+ XTI = 3.000  
+ CJE = 25.89E-12 
+ VJE = 689.1E-3 
+ MJE = 366.8E-3 
+ TF = 293.9E-12 
+ XTF = 71.78  
+ VTF = 20.00  
+ ITF = 4.797  
+ PTF = 0.000  
+ CJC = 10.11E-12 
+ VJC = 662.2E-3 
+ MJC = 416.0E-3 
+ XCJC = 0.5946  
+ TR = 320.0E-9 
+ CJS = 0.000  
+ VJS = 750.0E-3 
+ MJS = 333.0E-3 
+ FC = 938.8E-3 
*
.MODEL TR2 PNP 
+ IS = 4.43E-14 
+ NF = 0.9912 
+ ISE = 1.088E-14 
+ NE = 1.778 
+ BF = 247 
+ IKF = 0.505 
+ VAF = 46.5 
+ NR = 0.9921 
+ ISC = 7.13E-15 
+ NC = 1.08 
+ BR = 17.69 
+ IKR = 0.06 
+ VAR = 14 
+ RB = 34 
+ IRB = 0.00015 
+ RBM = 2.5 
+ RE = 0.1092 
+ RC = 0.25 
+ XTB = 0 
+ EG = 1.11 
+ XTI = 3 
+ CJE = 3.37E-11 
+ VJE = 0.8967 
+ MJE = 0.4354 
+ TF = 4.9E-10 
+ XTF = 4 
+ VTF = 10 
+ ITF = 0.7 
+ PTF = 0 
+ CJC = 2.203E-11 
+ VJC = 0.9 
+ MJC = 0.4495 
+ XCJC = 0.6 
+ TR = 8E-09 
+ CJS = 0 
+ VJS = 0.75 
+ MJS = 0.333 
+ FC = 0.999
*
.ENDS

*
.SUBCKT PMD3001D 1 2 3 4 5 6
*
R1 2 3 0
R2 5 6 0
Q1 6 1 4 TR1
Q2 3 1 4 TR2
*
.MODEL TR1 NPN
+ IS = 1.967E-13
+ NF = 0.9876
+ ISE = 1.999E-13
+ NE = 2.5
+ BF = 480
+ IKF = 1
+ VAF = 85
+ NR = 0.9878
+ ISC = 1E-18
+ NC = 2.563
+ BR = 65
+ IKR = 5.5
+ VAR = 12
+ RB = 80
+ IRB = 3E-05
+ RBM = 0.6
+ RE = 0.053
+ RC = 0.073
+ XTB = 0
+ EG = 1.11
+ XTI = 3
+ CJE = 1.158E-10
+ VJE = 0.5499
+ MJE = 0.3105
+ TF = 4.5E-10
+ XTF = 9
+ VTF = 3
+ ITF = 0.8
+ PTF = 0
+ CJC = 2.146E-11
+ VJC = 0.739
+ MJC = 0.4495
+ XCJC = 1
+ TR = 1.5E-08
+ CJS = 0
+ VJS = 0.75
+ MJS = 0.333
+ FC = 0.5
*
.MODEL TR2 PNP 
+ IS = 2.526E-013 
+ NF = 0.9959 
+ ISE = 1.056E-013 
+ NE = 1.763 
+ BF = 480 
+ IKF = 0.49 
+ VAF = 40 
+ NR = 0.994 
+ ISC = 5.238E-014 
+ NC = 1.128 
+ BR = 75 
+ IKR = 0.3 
+ VAR = 10 
+ RB = 21 
+ IRB = 0.00019 
+ RBM = 0.2 
+ RE = 0.085 
+ RC = 0.095 
+ XTB = 0 
+ EG = 1.11 
+ XTI = 3 
+ CJE = 9.2E-011 
+ VJE = 0.8407 
+ MJE = 0.4065 
+ TF = 5.6E-010 
+ XTF = 10 
+ VTF = 1 
+ ITF = 0.4 
+ PTF = 0 
+ CJC = 3.212E-011 
+ VJC = 0.5149 
+ MJC = 0.3901 
+ XCJC = 1 
+ TR = 6E-009 
+ CJS = 0 
+ VJS = 0.75 
+ MJS = 0.333 
+ FC = 0.78 
.ENDS
*

*
.SUBCKT PMD4001K 1 2 3
* 
Q1 3 1 2 TR1
D1 2 1 D1
*
.MODEL TR1 NPN
+ IS = 1.822E-14 
+ NF = 0.9932 
+ ISE = 2.894E-16 
+ NE = 1.4 
+ BF = 324.4 
+ IKF = 0.109 
+ VAF = 82 
+ NR = 0.9931 
+ ISC = 9.982E-12 
+ NC = 1.763 
+ BR = 8.29 
+ IKR = 0.09 
+ VAR = 17.9 
+ RB = 10 
+ IRB = 5E-06 
+ RBM = 5 
+ RE = 0.649 
+ RC = 0.7014 
+ XTB = 0 
+ EG = 1.11 
+ XTI = 3 
+ CJE = 1.244E-11 
+ VJE = 0.7579 
+ MJE = 0.3656 
+ TF = 4.908E-10 
+ XTF = 9.51 
+ VTF = 2.927 
+ ITF = 0.3131 
+ PTF = 0 
+ CJC = 3.347E-12 
+ VJC = 0.5463 
+ MJC = 0.391 
+ XCJC = 0.6193 
+ TR = 9E-08 
+ CJS = 0 
+ VJS = 0.75 
+ MJS = 0.333 
+ FC = 0.979
*
.MODEL D1 D
+ IS=10.825E-9
+ N=1.9301
+ RS=.49924
+ IKF=1.4135
+ CJO=994.44E-15
+ M=.10001
+ VJ=.69196
+ ISR=1.0704E-9
+ BV=113.15
+ IBV=15.676E-3
+ TT=5.7708E-9
.ENDS
*

*
.SUBCKT PMD4002K 1 2 3
* 
Q1 3 1 2 TR1
D1 2 1 D1
*
.MODEL TR1 NPN
+ IS=29.13E-15 
+ NF=992.6E-3 
+ ISE=9.652E-15 
+ NE=1.516  
+ BF=256.7  
+ IKF = 489.9E-3 
+ VAF = 80.99  
+ NR = 984.4E-3 
+ ISC = 320.3E-12 
+ NC = 1.608  
+ BR = 6.590  
+ IKR = 192.9E-3 
+ VAR = 101.2  
+ RB = 1.000  
+ IRB = 1.000E-3 
+ RBM = 1.000  
+ RE = 193.4E-3 
+ RC = 224.8E-3 
+ XTB = 0.000  
+ EG = 1.110  
+ XTI = 3.000  
+ CJE = 25.89E-12 
+ VJE = 689.1E-3 
+ MJE = 366.8E-3 
+ TF = 293.9E-12 
+ XTF = 71.78  
+ VTF = 20.00  
+ ITF = 4.797  
+ PTF = 0.000  
+ CJC = 10.11E-12 
+ VJC = 662.2E-3 
+ MJC = 416.0E-3 
+ XCJC = 0.5946  
+ TR = 320.0E-9 
+ CJS = 0.000  
+ VJS = 750.0E-3 
+ MJS = 333.0E-3 
+ FC = 938.8E-3
*
.MODEL D1 D
+ IS=10.825E-9
+ N=1.9301
+ RS=.49924
+ IKF=1.4135
+ CJO=994.44E-15
+ M=.10001
+ VJ=.69196
+ ISR=1.0704E-9
+ BV=113.15
+ IBV=15.676E-3
+ TT=5.7708E-9
.ENDS
*

*
.SUBCKT PMD4003K 1 2 3
* 
Q1 3 1 2 TR1
D1 2 1 D1
*
.MODEL TR1 NPN
+ IS = 1.967E-13
+ NF = 0.9876
+ ISE = 1.999E-13
+ NE = 2.5
+ BF = 480
+ IKF = 1
+ VAF = 85
+ NR = 0.9878
+ ISC = 1E-18
+ NC = 2.563
+ BR = 65
+ IKR = 5.5
+ VAR = 12
+ RB = 80
+ IRB = 3E-05
+ RBM = 0.6
+ RE = 0.053
+ RC = 0.073
+ XTB = 0
+ EG = 1.11
+ XTI = 3
+ CJE = 1.158E-10
+ VJE = 0.5499
+ MJE = 0.3105
+ TF = 4.5E-10
+ XTF = 9
+ VTF = 3
+ ITF = 0.8
+ PTF = 0
+ CJC = 2.146E-11
+ VJC = 0.739
+ MJC = 0.4495
+ XCJC = 1
+ TR = 1.5E-08
+ CJS = 0
+ VJS = 0.75
+ MJS = 0.333
+ FC = 0.5
*
.MODEL D1 D
+ IS=10.825E-9
+ N=1.9301
+ RS=.49924
+ IKF=1.4135
+ CJO=994.44E-15
+ M=.10001
+ VJ=.69196
+ ISR=1.0704E-9
+ BV=113.15
+ IBV=15.676E-3
+ TT=5.7708E-9
.ENDS
*

*
.SUBCKT PMD5001K 1 2 3
* 
Q1 3 1 2 TR1
D1 1 2 D1
*
.MODEL TR1 PNP 
+ IS = 2.014E-14 
+ NF = 0.9974 
+ ISE = 6.578E-15 
+ NE = 1.45 
+ BF = 315.3 
+ IKF = 0.079 
+ VAF = 39.15 
+ NR = 0.9952 
+ ISC = 1.633E-14 
+ NC = 1.15 
+ BR = 8.68 
+ IKR = 0.09 
+ VAR = 9.5 
+ RB = 10 
+ IRB = 5E-06 
+ RBM = 5E-06 
+ RE = 0.663 
+ RC = 0.718 
+ XTB = 0 
+ EG = 1.11 
+ XTI = 3 
+ CJE = 1.135E-11 
+ VJE = 0.7071 
+ MJE = 0.3808 
+ TF = 6.546E-10 
+ XTF = 5.387 
+ VTF = 6.245 
+ ITF = 0.2108 
+ PTF = 0 
+ CJC = 6.395E-12 
+ VJC = 0.4951 
+ MJC = 0.44 
+ XCJC = 0.6288 
+ TR = 5.5E-08 
+ CJS = 0 
+ VJS = 0.75 
+ MJS = 0.333  
+ FC = 0.9059
*
.MODEL D1 D
+ IS=10.825E-9
+ N=1.9301
+ RS=.49924
+ IKF=1.4135
+ CJO=994.44E-15
+ M=.10001
+ VJ=.69196
+ ISR=1.0704E-9
+ BV=113.15
+ IBV=15.676E-3
+ TT=5.7708E-9
.ENDS
*

*
.SUBCKT PMD5002K 1 2 3
*
Q1 3 1 2 TR1
D1 1 2 D1
*
.MODEL TR1 PNP 
+ IS = 4.43E-14 
+ NF = 0.9912 
+ ISE = 1.088E-14 
+ NE = 1.778 
+ BF = 247 
+ IKF = 0.505 
+ VAF = 46.5 
+ NR = 0.9921 
+ ISC = 7.13E-15 
+ NC = 1.08 
+ BR = 17.69 
+ IKR = 0.06 
+ VAR = 14 
+ RB = 34 
+ IRB = 0.00015 
+ RBM = 2.5 
+ RE = 0.1092 
+ RC = 0.25 
+ XTB = 0 
+ EG = 1.11 
+ XTI = 3 
+ CJE = 3.37E-11 
+ VJE = 0.8967 
+ MJE = 0.4354 
+ TF = 4.9E-10 
+ XTF = 4 
+ VTF = 10 
+ ITF = 0.7 
+ PTF = 0 
+ CJC = 2.203E-11 
+ VJC = 0.9 
+ MJC = 0.4495 
+ XCJC = 0.6 
+ TR = 8E-09 
+ CJS = 0 
+ VJS = 0.75 
+ MJS = 0.333 
+ FC = 0.999
*
.MODEL D1 D
+ IS=10.825E-9
+ N=1.9301
+ RS=.49924
+ IKF=1.4135
+ CJO=994.44E-15
+ M=.10001
+ VJ=.69196
+ ISR=1.0704E-9
+ BV=113.15
+ IBV=15.676E-3
+ TT=5.7708E-9
.ENDS
*

*
.SUBCKT PMD5003K 1 2 3
*
Q1 3 1 2 TR1
D1 1 2 D1
*
.MODEL TR1 PNP 
+ IS = 2.526E-013 
+ NF = 0.9959 
+ ISE = 1.056E-013 
+ NE = 1.763 
+ BF = 480 
+ IKF = 0.49 
+ VAF = 40 
+ NR = 0.994 
+ ISC = 5.238E-014 
+ NC = 1.128 
+ BR = 75 
+ IKR = 0.3 
+ VAR = 10 
+ RB = 21 
+ IRB = 0.00019 
+ RBM = 0.2 
+ RE = 0.085 
+ RC = 0.095 
+ XTB = 0 
+ EG = 1.11 
+ XTI = 3 
+ CJE = 9.2E-011 
+ VJE = 0.8407 
+ MJE = 0.4065 
+ TF = 5.6E-010 
+ XTF = 10 
+ VTF = 1 
+ ITF = 0.4 
+ PTF = 0 
+ CJC = 3.212E-011 
+ VJC = 0.5149 
+ MJC = 0.3901 
+ XCJC = 1 
+ TR = 6E-009 
+ CJS = 0 
+ VJS = 0.75 
+ MJS = 0.333 
+ FC = 0.78 
 *
.MODEL D1 D
+ IS=10.825E-9
+ N=1.9301
+ RS=.49924
+ IKF=1.4135
+ CJO=994.44E-15
+ M=.10001
+ VJ=.69196
+ ISR=1.0704E-9
+ BV=113.15
+ IBV=15.676E-3
+ TT=5.7708E-9
.ENDS
*

*
.SUBCKT PMD9001D 1 2 3 4 5 6
*
R1 3 33 2.2E+03
R21 2 22 1.1E+03 
R22 22 33 1.1E+03
R3 4 5 0
Cres1 3 4 4.8E-13
Cres2 22 4 1.5E-13
*
Q1 5 33 2 RET1
Q2 6 5 1 TR1
D1 1 5 D1
*
.MODEL RET1 NPN 
+ IS = 1.822E-14 
+ NF = 0.9932 
+ ISE = 2.894E-16 
+ NE = 1.4 
+ BF = 354.4 
+ IKF = 0.246 
+ VAF = 182 
+ NR = 0.9931 
+ ISC = 9.982E-12 
+ NC = 1.763 
+ BR = 14.99 
+ IKR = 0.05
+ VAR = 17.9 
+ RB = 10 
+ IRB = 5E-06 
+ RBM = 5 
+ RE = 0.649 
+ RC = 1.101 
+ XTB = 0 
+ EG = 1.11 
+ XTI = 3 
+ CJE = 1.32E-11 
+ VJE = 0.8401 
+ MJE = 0.3622 
+ TF = 1E-32 
+ XTF = 0 
+ VTF = 1E+03 
+ ITF = 0 
+ PTF = 0 
+ CJC = 3.821E-12 
+ VJC = 0.5986 
+ MJC = 0.3745 
+ XCJC = 0.6193 
+ TR = 1E-32
+ CJS = 0 
+ VJS = 0.75 
+ MJS = 0.333 
+ FC = 0.5
*
.MODEL TR1 NPN
+ IS = 1.822E-14 
+ NF = 0.9932 
+ ISE = 2.894E-16 
+ NE = 1.4 
+ BF = 324.4 
+ IKF = 0.109 
+ VAF = 82
+ NR = 0.9931 
+ ISC = 9.982E-12 
+ NC = 1.763 
+ BR = 8.29 
+ IKR = 0.09 
+ VAR = 17.9 
+ RB = 10 
+ IRB = 5E-06 
+ RBM = 5 
+ RE = 0.649 
+ RC = 0.7014 
+ XTB = 0 
+ EG = 1.11 
+ XTI = 3 
+ CJE = 1.244E-11 
+ VJE = 0.7579 
+ MJE = 0.3656 
+ TF = 4.908E-10 
+ XTF = 9.51 
+ VTF = 2.927 
+ ITF = 0.3131 
+ PTF = 0 
+ CJC = 3.347E-12 
+ VJC = 0.5463 
+ MJC = 0.391 
+ XCJC = 0.6193 
+ TR = 9E-08 
+ CJS = 0 
+ VJS = 0.75 
+ MJS = 0.333 
+ FC = 0.979
*
.MODEL D1 D
+ IS=10.825E-9
+ N=1.9301
+ RS=.49924
+ IKF=1.4135
+ CJO=994.44E-15
+ M=.10001
+ VJ=.69196
+ ISR=1.0704E-9
+ BV=113.15
+ IBV=15.676E-3
+ TT=5.7708E-9
.ENDS
*

*
.SUBCKT PMD9002D 1 2 3 4 5 6
*
R1 3 33 4.7E+03
R21 2 22 2.35E+03 
R22 22 33 2.35E+03
R3 4 5 0
Cres1 3 4 4.3E-13
Cres2 22 4 1.4E-13
*
Q1 5 33 2 RET1
Q2 6 5 1 TR1
D1 1 5 D1
*
.MODEL RET1 NPN 
+ IS = 1.822E-14 
+ NF = 0.9932 
+ ISE = 2.894E-16 
+ NE = 1.4 
+ BF = 354.4 
+ IKF = 0.246 
+ VAF = 182 
+ NR = 0.9931 
+ ISC = 9.982E-12 
+ NC = 1.763 
+ BR = 14.99 
+ IKR = 0.05
+ VAR = 17.9 
+ RB = 10 
+ IRB = 5E-06 
+ RBM = 5 
+ RE = 0.649 
+ RC = 1.101 
+ XTB = 0 
+ EG = 1.11 
+ XTI = 3 
+ CJE = 1.32E-11 
+ VJE = 0.8401 
+ MJE = 0.3622 
+ TF = 1E-32 
+ XTF = 0 
+ VTF = 1E+03 
+ ITF = 0 
+ PTF = 0 
+ CJC = 3.821E-12 
+ VJC = 0.5986 
+ MJC = 0.3745 
+ XCJC = 0.6193 
+ TR = 1E-32
+ CJS = 0 
+ VJS = 0.75 
+ MJS = 0.333 
+ FC = 0.5
*
.MODEL TR1 NPN
+ IS = 1.822E-14 
+ NF = 0.9932 
+ ISE = 2.894E-16 
+ NE = 1.4 
+ BF = 324.4 
+ IKF = 0.109 
+ VAF = 82
+ NR = 0.9931 
+ ISC = 9.982E-12 
+ NC = 1.763 
+ BR = 8.29 
+ IKR = 0.09 
+ VAR = 17.9 
+ RB = 10 
+ IRB = 5E-06 
+ RBM = 5 
+ RE = 0.649 
+ RC = 0.7014 
+ XTB = 0 
+ EG = 1.11 
+ XTI = 3 
+ CJE = 1.244E-11 
+ VJE = 0.7579 
+ MJE = 0.3656 
+ TF = 4.908E-10 
+ XTF = 9.51 
+ VTF = 2.927 
+ ITF = 0.3131 
+ PTF = 0 
+ CJC = 3.347E-12 
+ VJC = 0.5463 
+ MJC = 0.391 
+ XCJC = 0.6193 
+ TR = 9E-08 
+ CJS = 0 
+ VJS = 0.75 
+ MJS = 0.333 
+ FC = 0.979
*
.MODEL D1 D
+ IS=10.825E-9
+ N=1.9301
+ RS=.49924
+ IKF=1.4135
+ CJO=994.44E-15
+ M=.10001
+ VJ=.69196
+ ISR=1.0704E-9
+ BV=113.15
+ IBV=15.676E-3
+ TT=5.7708E-9
.ENDS
*

*
.SUBCKT PMD9003D 1 2 3 4 5 6
*
R1 3 33 1E+04
R21 2 22 5E+03 
R22 22 33 5E+03
R3 4 5 0
Cres1 3 4 4.8E-13
Cres2 22 4 1.3E-13
*
Q1 5 33 2 RET1
Q2 6 5 1 TR1
D1 1 5 D1
*
.MODEL RET1 NPN 
+ IS = 1.822E-14 
+ NF = 0.9932 
+ ISE = 2.894E-16 
+ NE = 1.4 
+ BF = 354.4 
+ IKF = 0.246 
+ VAF = 182 
+ NR = 0.9931 
+ ISC = 9.982E-12 
+ NC = 1.763 
+ BR = 14.99 
+ IKR = 0.05
+ VAR = 17.9 
+ RB = 10 
+ IRB = 5E-06 
+ RBM = 5 
+ RE = 0.649 
+ RC = 1.101 
+ XTB = 0 
+ EG = 1.11 
+ XTI = 3 
+ CJE = 1.32E-11 
+ VJE = 0.8401 
+ MJE = 0.3622 
+ TF = 1E-32 
+ XTF = 0 
+ VTF = 1E+03 
+ ITF = 0 
+ PTF = 0 
+ CJC = 3.821E-12 
+ VJC = 0.5986 
+ MJC = 0.3745 
+ XCJC = 0.6193 
+ TR = 1E-32
+ CJS = 0 
+ VJS = 0.75 
+ MJS = 0.333 
+ FC = 0.5
*
.MODEL TR1 NPN
+ IS = 1.822E-14 
+ NF = 0.9932 
+ ISE = 2.894E-16 
+ NE = 1.4 
+ BF = 324.4 
+ IKF = 0.109 
+ VAF = 82
+ NR = 0.9931 
+ ISC = 9.982E-12 
+ NC = 1.763 
+ BR = 8.29 
+ IKR = 0.09 
+ VAR = 17.9 
+ RB = 10 
+ IRB = 5E-06 
+ RBM = 5 
+ RE = 0.649 
+ RC = 0.7014 
+ XTB = 0 
+ EG = 1.11 
+ XTI = 3 
+ CJE = 1.244E-11 
+ VJE = 0.7579 
+ MJE = 0.3656 
+ TF = 4.908E-10 
+ XTF = 9.51 
+ VTF = 2.927 
+ ITF = 0.3131 
+ PTF = 0 
+ CJC = 3.347E-12 
+ VJC = 0.5463 
+ MJC = 0.391 
+ XCJC = 0.6193 
+ TR = 9E-08 
+ CJS = 0 
+ VJS = 0.75 
+ MJS = 0.333 
+ FC = 0.979
*
.MODEL D1 D
+ IS=10.825E-9
+ N=1.9301
+ RS=.49924
+ IKF=1.4135
+ CJO=994.44E-15
+ M=.10001
+ VJ=.69196
+ ISR=1.0704E-9
+ BV=113.15
+ IBV=15.676E-3
+ TT=5.7708E-9
.ENDS
*

*
.SUBCKT PMD9010D 1 2 3 4 5 6
*
Q1 5 3 2 TR1
Q2 6 5 1 TR1
D1 1 5 D1
R1 4 5 0
*
.MODEL TR1 NPN
+ IS = 1.822E-14 
+ NF = 0.9932 
+ ISE = 2.894E-16 
+ NE = 1.4 
+ BF = 324.4 
+ IKF = 0.109 
+ VAF = 82
+ NR = 0.9931 
+ ISC = 9.982E-12 
+ NC = 1.763 
+ BR = 8.29 
+ IKR = 0.09 
+ VAR = 17.9 
+ RB = 10 
+ IRB = 5E-06 
+ RBM = 5 
+ RE = 0.649 
+ RC = 0.7014 
+ XTB = 0 
+ EG = 1.11 
+ XTI = 3 
+ CJE = 1.244E-11 
+ VJE = 0.7579 
+ MJE = 0.3656 
+ TF = 4.908E-10 
+ XTF = 9.51 
+ VTF = 2.927 
+ ITF = 0.3131 
+ PTF = 0 
+ CJC = 3.347E-12 
+ VJC = 0.5463 
+ MJC = 0.391 
+ XCJC = 0.6193 
+ TR = 9E-08 
+ CJS = 0 
+ VJS = 0.75 
+ MJS = 0.333 
+ FC = 0.979
*
.MODEL D1 D
+ IS=10.825E-9
+ N=1.9301
+ RS=.49924
+ IKF=1.4135
+ CJO=994.44E-15
+ M=.10001
+ VJ=.69196
+ ISR=1.0704E-9
+ BV=113.15
+ IBV=15.676E-3
+ TT=5.7708E-9
.ENDS
*

*
.SUBCKT PMD9050D 1 2 3 4 5 6
*
Q1 2 1 4 TR1
Q2 6 5 2 TR2
Q3 5 6 4 TR1
D1 3 2 D1
*
.MODEL TR1 NPN
+ IS = 1.822E-14 
+ NF = 0.9932 
+ ISE = 2.894E-16 
+ NE = 1.4 
+ BF = 324.4 
+ IKF = 0.109 
+ VAF = 82
+ NR = 0.9931 
+ ISC = 9.982E-12 
+ NC = 1.763 
+ BR = 8.29 
+ IKR = 0.09 
+ VAR = 17.9 
+ RB = 10 
+ IRB = 5E-06 
+ RBM = 5 
+ RE = 0.649 
+ RC = 0.7014 
+ XTB = 0 
+ EG = 1.11 
+ XTI = 3 
+ CJE = 1.244E-11 
+ VJE = 0.7579 
+ MJE = 0.3656 
+ TF = 4.908E-10 
+ XTF = 9.51 
+ VTF = 2.927 
+ ITF = 0.3131 
+ PTF = 0 
+ CJC = 3.347E-12 
+ VJC = 0.5463 
+ MJC = 0.391 
+ XCJC = 0.6193 
+ TR = 9E-08 
+ CJS = 0 
+ VJS = 0.75 
+ MJS = 0.333 
+ FC = 0.979
*
.MODEL TR2 PNP 
+ IS = 2.014E-14 
+ NF = 0.9974 
+ ISE = 6.578E-15 
+ NE = 1.45 
+ BF = 315.3 
+ IKF = 0.079 
+ VAF = 39.15 
+ NR = 0.9952 
+ ISC = 1.633E-14 
+ NC = 1.15 
+ BR = 8.68 
+ IKR = 0.09 
+ VAR = 9.5 
+ RB = 10 
+ IRB = 5E-06 
+ RBM = 5E-06 
+ RE = 0.663 
+ RC = 0.718 
+ XTB = 0 
+ EG = 1.11 
+ XTI = 3 
+ CJE = 1.135E-11 
+ VJE = 0.7071 
+ MJE = 0.3808 
+ TF = 6.546E-10 
+ XTF = 5.387 
+ VTF = 6.245 
+ ITF = 0.2108 
+ PTF = 0 
+ CJC = 6.395E-12 
+ VJC = 0.4951 
+ MJC = 0.44 
+ XCJC = 0.6288 
+ TR = 5.5E-08 
+ CJS = 0 
+ VJS = 0.75 
+ MJS = 0.333  
+ FC = 0.9059
*
.MODEL D1 D
+ IS=10.825E-9
+ N=1.9301
+ RS=.49924
+ IKF=1.4135
+ CJO=994.44E-15
+ M=.10001
+ VJ=.69196
+ ISR=1.0704E-9
+ BV=113.15
+ IBV=15.676E-3
+ TT=5.7708E-9
.ENDS
*

*
.SUBCKT PMEM4020ND 1 3 4 5 6
*
D1 4 3 DIODE
R1 4 3 2E+06
*
* The resistor R1 does not reflect
* a physical device. Instead it
* improves modeling in the reverse
* mode of operation.
*
Q1 6 5 1 TR1
*
.MODEL DIODE D
+ IS = 1.686E-06
+ N = 1.015
+ BV = 21
+ IBV = 1E-06
+ RS = 0.1249
+ CJO = 9.086E-11
+ VJ = 0.1939
+ M = 0.4542
+ FC = 1
+ EG = 0.69
+ XTI = 2
*
.MODEL TR1 NPN
+ IS = 1.967E-13
+ NF = 0.9876
+ ISE = 1.999E-13
+ NE = 2.5
+ BF = 480
+ IKF = 1
+ VAF = 85
+ NR = 0.9878
+ ISC = 1E-18
+ NC = 2.563
+ BR = 65
+ IKR = 5.5
+ VAR = 12
+ RB = 80
+ IRB = 3E-05
+ RBM = 0.6
+ RE = 0.051
+ RC = 0.073
+ XTB = 0
+ EG = 1.11
+ XTI = 3
+ CJE = 1.158E-10
+ VJE = 0.5499
+ MJE = 0.3105
+ TF = 4.5E-10
+ XTF = 9
+ VTF = 3
+ ITF = 0.8
+ PTF = 0
+ CJC = 2.146E-11
+ VJC = 0.739
+ MJC = 0.4495
+ XCJC = 1
+ TR = 1.5E-08
+ CJS = 0
+ VJS = 0.75
+ MJS = 0.333
+ FC = 0.5
.ENDS

*
.SUBCKT PMEM4020PD 1 3 4 5 6
*
D1 4 3 DIODE
R1 4 3 2E+06
*
* The resistor R1 does not reflect
* a physical device. Instead it
* improves modeling in the reverse
* mode of operation.
*
Q1 6 5 1 TR1
*
.MODEL DIODE D
+ IS = 1.686E-06
+ N = 1.015
+ BV = 21
+ IBV = 1E-06
+ RS = 0.1249
+ CJO = 9.086E-11
+ VJ = 0.1939
+ M = 0.4542
+ FC = 1
+ EG = 0.69
+ XTI = 2
*
.MODEL TR1 PNP
+ IS = 2.526E-13
+ NF = 0.9959
+ ISE = 1.056E-13
+ NE = 1.763
+ BF = 480
+ IKF = 0.49
+ VAF = 40
+ NR = 0.994
+ ISC = 5.238E-14
+ NC = 1.128
+ BR = 75
+ IKR = 0.3
+ VAR = 10
+ RB = 21
+ IRB = 0.00019
+ RBM = 0.2
+ RE = 0.048
+ RC = 0.085
+ XTB = 0
+ EG = 1.11
+ XTI = 3
+ CJE = 9.2E-11
+ VJE = 0.8407
+ MJE = 0.4065
+ TF = 5.6E-10
+ XTF = 10
+ VTF = 1
+ ITF = 0.4
+ PTF = 0
+ CJC = 3.212E-11
+ VJC = 0.5149
+ MJC = 0.3901
+ XCJC = 1
+ TR = 6E-09
+ CJS = 0
+ VJS = 0.75
+ MJS = 0.333
+ FC = 0.78
.ENDS

*
.SUBCKT PMP4201V 1 2 3 4 5 6
*
* 2 matched NPN Transistors in SOT666
*
Q1 6 1 5 TR1
Q2 3 2 4 TR1
*
.MODEL TR1 NPN
+     IS = 1.822E-14 
+     NF = 0.9932 
+     ISE = 2.894E-16 
+     NE = 1.4 
+     BF = 324.4 
+     IKF = 0.109 
+     VAF = 82 
+     NR = 0.9931 
+     ISC = 9.982E-12 
+     NC = 1.763 
+     BR = 8.29 
+     IKR = 0.09 
+     VAR = 17.9 
+     RB = 10 
+     IRB = 5E-06 
+     RBM = 5 
+     RE = 0.649 
+     RC = 0.7014 
+     CJE = 1.244E-11 
+     VJE = 0.7579 
+     MJE = 0.3656 
+     TF = 4.908E-10 
+     XTF = 9.51 
+     VTF = 2.927 
+     ITF = 0.3131 
+     PTF = 0 
+     CJC = 3.347E-12 
+     VJC = 0.5463 
+     MJC = 0.391 
+     XCJC = 0.6193 
+     TR = 9E-08 
+     CJS = 0 
+     VJS = 0.75 
+     MJS = 0.333 
+     XTB = 0 
+     XTI = 3 
+     EG = 1.11 
+     FC = 0.979
.ENDS
*

*
.SUBCKT PMP4501V 1 2 3 4 5 6
*
* 2 matched NPN Transistors in SOT666
*
Q1 6 1 5 TR1
Q2 3 2 4 TR1
*
.MODEL TR1 NPN
+     IS = 1.822E-14 
+     NF = 0.9932 
+     ISE = 2.894E-16 
+     NE = 1.4 
+     BF = 324.4 
+     IKF = 0.109 
+     VAF = 82 
+     NR = 0.9931 
+     ISC = 9.982E-12 
+     NC = 1.763 
+     BR = 8.29 
+     IKR = 0.09 
+     VAR = 17.9 
+     RB = 10 
+     IRB = 5E-06 
+     RBM = 5 
+     RE = 0.649 
+     RC = 0.7014 
+     CJE = 1.244E-11 
+     VJE = 0.7579 
+     MJE = 0.3656 
+     TF = 4.908E-10 
+     XTF = 9.51 
+     VTF = 2.927 
+     ITF = 0.3131 
+     PTF = 0 
+     CJC = 3.347E-12 
+     VJC = 0.5463 
+     MJC = 0.391 
+     XCJC = 0.6193 
+     TR = 9E-08 
+     CJS = 0 
+     VJS = 0.75 
+     MJS = 0.333 
+     XTB = 0 
+     XTI = 3 
+     EG = 1.11 
+     FC = 0.979
.ENDS
*

*
.SUBCKT PMP5201V 1 2 3 4 5 6
*
* 2 matched PNP transistors in SOT666
*
Q1 6 1 5 TR1
Q2 3 2 4 TR1
*
.MODEL TR1 PNP