* NXP Semiconductors
.subckt PemiQFN_CE INPUT1 PADGND OUTPUT1
C1  1   500 .053p
C2  2   500 .053p
C3  3   500 .053p
C4  4   500 .053p
C5  5   500 .053p
C6  6   500 .053p
C7  7   500 .053p
C8  8   500 .053p
C9  9   500 .053p
C10 10  500 .053p
C11 11  500 .053p
C12 12  500 .053p
C13 13  500 .053p
C14 14  500 .053p
C15 15  500 .053p
C16 16  500 .053p
C17 17  500 .053p
C18 18  500 .053p
C19 19  500 .053p
R1  1  2  1.000
R2  2  3  1.000
R3  3  4  1.000
R4  4  5  1.000
R5  5  6  1.000
R6  6  7  1.000
R7  7  8  1.000
R8  8  9  1.000
R9  9  10 1.000
R10 10 11 1.000
R11 11 12 1.000
R12 12 13 1.000
R13 13 14 1.000
R14 14 15 1.000
R15 15 16 1.000
R16 16 17 1.000
R17 17 18 1.000
R18 18 19 1.000
R19 19 201 1.000
R20 1  101 1.000
D1  500 101 IDS_diode
D2  500 201 IDS_diode
L1  INPUT1  100  400p
L2  OUTPUT1 200  400p
L3  500   501    25p
R200 201  200    0.020
R100 100  101    0.020
R300 501  PADGND 0.2
.model IDS_diode D (VJ = 600m BV = 8 CJO = 7.000p M = 360m)
.ends PemiQFN_CE

* NXP Semiconductors
.subckt PemiQFN_CG INPUT1 PADGND OUTPUT1
C1  1   500 .053p
C2  2   500 .053p
C3  3   500 .053p
C4  4   500 .053p
C5  5   500 .053p
C6  6   500 .053p
C7  7   500 .053p
C8  8   500 .053p
C9  9   500 .053p
C10 10  500 .053p
C11 11  500 .053p
C12 12  500 .053p
C13 13  500 .053p
C14 14  500 .053p
C15 15  500 .053p
C16 16  500 .053p
C17 17  500 .053p
C18 18  500 .053p
C19 19  500 .053p
R1  1  2  1.000
R2  2  3  1.000
R3  3  4  1.000
R4  4  5  1.000
R5  5  6  1.000
R6  6  7  1.000
R7  7  8  1.000
R8  8  9  1.000
R9  9  10 1.000
R10 10 11 1.000
R11 11 12 1.000
R12 12 13 1.000
R13 13 14 1.000
R14 14 15 1.000
R15 15 16 1.000
R16 16 17 1.000
R17 17 18 1.000
R18 18 19 1.000
R19 19 201 1.000
R20 1  101 1.000
D1  500 101 IDS_diode
D2  500 201 IDS_diode
L1  INPUT1  100  400p
L2  OUTPUT1 200  400p
L3  500   501    25p
R200 201  200    0.020
R100 100  101    0.020
R300 501  PADGND 0.2
.model IDS_diode D (VJ = 600m BV = 8 CJO = 9.000p M = 360m)
.ends PemiQFN_CG

* NXP Semiconductors
.subckt PemiQFN_CK INPUT1 PADGND OUTPUT1
C1  1   500 .053p
C2  2   500 .053p
C3  3   500 .053p
C4  4   500 .053p
C5  5   500 .053p
C6  6   500 .053p
C7  7   500 .053p
C8  8   500 .053p
C9  9   500 .053p
C10 10  500 .053p
C11 11  500 .053p
C12 12  500 .053p
C13 13  500 .053p
C14 14  500 .053p
C15 15  500 .053p
C16 16  500 .053p
C17 17  500 .053p
C18 18  500 .053p
C19 19  500 .053p
R1  1  2  1.000
R2  2  3  1.000
R3  3  4  1.000
R4  4  5  1.000
R5  5  6  1.000
R6  6  7  1.000
R7  7  8  1.000
R8  8  9  1.000
R9  9  10 1.000
R10 10 11 1.000
R11 11 12 1.000
R12 12 13 1.000
R13 13 14 1.000
R14 14 15 1.000
R15 15 16 1.000
R16 16 17 1.000
R17 17 18 1.000
R18 18 19 1.000
R19 19 201 1.000
R20 1  101 1.000
D1  500 101 IDS_diode
D2  500 201 IDS_diode
L1  INPUT1  100  400p
L2  OUTPUT1 200  400p
L3  500   501    25p
R200 201  200    0.020
R100 100  101    0.020
R300 501  PADGND 0.2
.model IDS_diode D (VJ = 600m BV = 8 CJO = 11.000p M = 360m)
.ends PemiQFN_CK

* NXP Semiconductors
.subckt PemiQFN_CM INPUT1 PADGND OUTPUT1
C1  1   500 .053p
C2  2   500 .053p
C3  3   500 .053p
C4  4   500 .053p
C5  5   500 .053p
C6  6   500 .053p
C7  7   500 .053p
C8  8   500 .053p
C9  9   500 .053p
C10 10  500 .053p
C11 11  500 .053p
C12 12  500 .053p
C13 13  500 .053p
C14 14  500 .053p
C15 15  500 .053p
C16 16  500 .053p
C17 17  500 .053p
C18 18  500 .053p
C19 19  500 .053p
R1  1  2  1.000
R2  2  3  1.000
R3  3  4  1.000
R4  4  5  1.000
R5  5  6  1.000
R6  6  7  1.000
R7  7  8  1.000
R8  8  9  1.000
R9  9  10 1.000
R10 10 11 1.000
R11 11 12 1.000
R12 12 13 1.000
R13 13 14 1.000
R14 14 15 1.000
R15 15 16 1.000
R16 16 17 1.000
R17 17 18 1.000
R18 18 19 1.000
R19 19 201 1.000
R20 1  101 1.000
D1  500 101 IDS_diode
D2  500 201 IDS_diode
L1  INPUT1  100  400p
L2  OUTPUT1 200  400p
L3  500   501    25p
R200 201  200    0.020
R100 100  101    0.020
R300 501  PADGND 0.2
.model IDS_diode D (VJ = 600m BV = 8 CJO = 13.500p M = 360m)
.ends PemiQFN_CM

* NXP Semiconductors
.subckt PemiQFN_CP INPUT1 PADGND OUTPUT1
C1  1   500 .053p
C2  2   500 .053p
C3  3   500 .053p
C4  4   500 .053p
C5  5   500 .053p
C6  6   500 .053p
C7  7   500 .053p
C8  8   500 .053p
C9  9   500 .053p
C10 10  500 .053p
C11 11  500 .053p
C12 12  500 .053p
C13 13  500 .053p
C14 14  500 .053p
C15 15  500 .053p
C16 16  500 .053p
C17 17  500 .053p
C18 18  500 .053p
C19 19  500 .053p
R1  1  2  1.000
R2  2  3  1.000
R3  3  4  1.000
R4  4  5  1.000
R5  5  6  1.000
R6  6  7  1.000
R7  7  8  1.000
R8  8  9  1.000
R9  9  10 1.000
R10 10 11 1.000
R11 11 12 1.000
R12 12 13 1.000
R13 13 14 1.000
R14 14 15 1.000
R15 15 16 1.000
R16 16 17 1.000
R17 17 18 1.000
R18 18 19 1.000
R19 19 201 1.000
R20 1  101 1.000
D1  500 101 IDS_diode
D2  500 201 IDS_diode
L1  INPUT1  100  400p
L2  OUTPUT1 200  400p
L3  500   501    25p
R200 201  200    0.020
R100 100  101    0.020
R300 501  PADGND 0.2
.model IDS_diode D (VJ = 600m BV = 8 CJO = 15.500p M = 360m)
.ends PemiQFN_CP

* NXP Semiconductors
.subckt PemiQFN_CR INPUT1 PADGND OUTPUT1
C1  1   500 .053p
C2  2   500 .053p
C3  3   500 .053p
C4  4   500 .053p
C5  5   500 .053p
C6  6   500 .053p
C7  7   500 .053p
C8  8   500 .053p
C9  9   500 .053p
C10 10  500 .053p
C11 11  500 .053p
C12 12  500 .053p
C13 13  500 .053p
C14 14  500 .053p
C15 15  500 .053p
C16 16  500 .053p
C17 17  500 .053p
C18 18  500 .053p
C19 19  500 .053p
R1  1  2  1.000
R2  2  3  1.000
R3  3  4  1.000
R4  4  5  1.000
R5  5  6  1.000
R6  6  7  1.000
R7  7  8  1.000
R8  8  9  1.000
R9  9  10 1.000
R10 10 11 1.000
R11 11 12 1.000
R12 12 13 1.000
R13 13 14 1.000
R14 14 15 1.000
R15 15 16 1.000
R16 16 17 1.000
R17 17 18 1.000
R18 18 19 1.000
R19 19 201 1.000
R20 1  101 1.000
D1  500 101 IDS_diode
D2  500 201 IDS_diode
L1  INPUT1  100  400p
L2  OUTPUT1 200  400p
L3  500   501    25p
R200 201  200    0.020
R100 100  101    0.020
R300 501  PADGND 0.2
.model IDS_diode D (VJ = 600m BV = 8 CJO = 17.500p M = 360m)
.ends PemiQFN_CR

* NXP Semiconductors
.subckt PemiQFN_CT INPUT1 PADGND OUTPUT1
C1  1   500 .053p
C2  2   500 .053p
C3  3   500 .053p
C4  4   500 .053p
C5  5   500 .053p
C6  6   500 .053p
C7  7   500 .053p
C8  8   500 .053p
C9  9   500 .053p
C10 10  500 .053p
C11 11  500 .053p
C12 12  500 .053p
C13 13  500 .053p
C14 14  500 .053p
C15 15  500 .053p
C16 16  500 .053p
C17 17  500 .053p
C18 18  500 .053p
C19 19  500 .053p
R1  1  2  1.000
R2  2  3  1.000
R3  3  4  1.000
R4  4  5  1.000
R5  5  6  1.000
R6  6  7  1.000
R7  7  8  1.000
R8  8  9  1.000
R9  9  10 1.000
R10 10 11 1.000
R11 11 12 1.000
R12 12 13 1.000
R13 13 14 1.000
R14 14 15 1.000
R15 15 16 1.000
R16 16 17 1.000
R17 17 18 1.000
R18 18 19 1.000
R19 19 201 1.000
R20 1  101 1.000
D1  500 101 IDS_diode
D2  500 201 IDS_diode
L1  INPUT1  100  400p
L2  OUTPUT1 200  400p
L3  500   501    25p
R200 201  200    0.020
R100 100  101    0.020
R300 501  PADGND 0.2
.model IDS_diode D (VJ = 600m BV = 8 CJO = 19.500p M = 360m)
.ends PemiQFN_CT

* NXP Semiconductors
.subckt PemiQFN_HE INPUT1 PADGND OUTPUT1
C1  1   500 .053p
C2  2   500 .053p
C3  3   500 .053p
C4  4   500 .053p
C5  5   500 .053p
C6  6   500 .053p
C7  7   500 .053p
C8  8   500 .053p
C9  9   500 .053p
C10 10  500 .053p
C11 11  500 .053p
C12 12  500 .053p
C13 13  500 .053p
C14 14  500 .053p
C15 15  500 .053p
C16 16  500 .053p
C17 17  500 .053p
C18 18  500 .053p
C19 19  500 .053p
R1  1  2  2.250
R2  2  3  2.250
R3  3  4  2.250
R4  4  5  2.250
R5  5  6  2.250
R6  6  7  2.250
R7  7  8  2.250
R8  8  9  2.250
R9  9  10 2.250
R10 10 11 2.250
R11 11 12 2.250
R12 12 13 2.250
R13 13 14 2.250
R14 14 15 2.250
R15 15 16 2.250
R16 16 17 2.250
R17 17 18 2.250
R18 18 19 2.250
R19 19 201 2.250
R20 1  101 2.250
D1  500 101 IDS_diode
D2  500 201 IDS_diode
L1  INPUT1  100  400p
L2  OUTPUT1 200  400p
L3  500   501    25p
R200 201  200    0.020
R100 100  101    0.020
R300 501  PADGND 0.2
.model IDS_diode D (VJ = 600m BV = 8 CJO = 7.000p M = 360m)
.ends PemiQFN_HE

* NXP Semiconductors
.subckt PemiQFN_HG INPUT1 PADGND OUTPUT1
C1  1   500 .053p
C2  2   500 .053p
C3  3   500 .053p
C4  4   500 .053p
C5  5   500 .053p
C6  6   500 .053p
C7  7   500 .053p
C8  8   500 .053p
C9  9   500 .053p
C10 10  500 .053p
C11 11  500 .053p
C12 12  500 .053p
C13 13  500 .053p
C14 14  500 .053p
C15 15  500 .053p
C16 16  500 .053p
C17 17  500 .053p
C18 18  500 .053p
C19 19  500 .053p
R1  1  2  2.250
R2  2  3  2.250
R3  3  4  2.250
R4  4  5  2.250
R5  5  6  2.250
R6  6  7  2.250
R7  7  8  2.250
R8  8  9  2.250
R9  9  10 2.250
R10 10 11 2.250
R11 11 12 2.250
R12 12 13 2.250
R13 13 14 2.250
R14 14 15 2.250
R15 15 16 2.250
R16 16 17 2.250
R17 17 18 2.250
R18 18 19 2.250
R19 19 201 2.250
R20 1  101 2.250
D1  500 101 IDS_diode
D2  500 201 IDS_diode
L1  INPUT1  100  400p
L2  OUTPUT1 200  400p
L3  500   501    25p
R200 201  200    0.020
R100 100  101    0.020
R300 501  PADGND 0.2
.model IDS_diode D (VJ = 600m BV = 8 CJO = 9.000p M = 360m)
.ends PemiQFN_HG

* NXP Semiconductors
.subckt PemiQFN_HK INPUT1 PADGND OUTPUT1
C1  1   500 .053p
C2  2   500 .053p
C3  3   500 .053p
C4  4   500 .053p
C5  5   500 .053p
C6  6   500 .053p
C7  7   500 .053p
C8  8   500 .053p
C9  9   500 .053p
C10 10  500 .053p
C11 11  500 .053p
C12 12  500 .053p
C13 13  500 .053p
C14 14  500 .053p
C15 15  500 .053p
C16 16  500 .053p
C17 17  500 .053p
C18 18  500 .053p
C19 19  500 .053p
R1  1  2  2.250
R2  2  3  2.250
R3  3  4  2.250
R4  4  5  2.250
R5  5  6  2.250
R6  6  7  2.250
R7  7  8  2.250
R8  8  9  2.250
R9  9  10 2.250
R10 10 11 2.250
R11 11 12 2.250
R12 12 13 2.250
R13 13 14 2.250
R14 14 15 2.250
R15 15 16 2.250
R16 16 17 2.250
R17 17 18 2.250
R18 18 19 2.250
R19 19 201 2.250
R20 1  101 2.250
D1  500 101 IDS_diode
D2  500 201 IDS_diode
L1  INPUT1  100  400p
L2  OUTPUT1 200  400p
L3  500   501    25p
R200 201  200    0.020
R100 100  101    0.020
R300 501  PADGND 0.2
.model IDS_diode D (VJ = 600m BV = 8 CJO = 11.000p M = 360m)
.ends PemiQFN_HK

* NXP Semiconductors
.subckt PemiQFN_HM INPUT1 PADGND OUTPUT1
C1  1   500 .053p
C2  2   500 .053p
C3  3   500 .053p
C4  4   500 .053p
C5  5   500 .053p
C6  6   500 .053p
C7  7   500 .053p
C8  8   500 .053p
C9  9   500 .053p
C10 10  500 .053p
C11 11  500 .053p
C12 12  500 .053p
C13 13  500 .053p
C14 14  500 .053p
C15 15  500 .053p
C16 16  500 .053p
C17 17  500 .053p
C18 18  500 .053p
C19 19  500 .053p
R1  1  2  2.250
R2  2  3  2.250
R3  3  4  2.250
R4  4  5  2.250
R5  5  6  2.250
R6  6  7  2.250
R7  7  8  2.250
R8  8  9  2.250
R9  9  10 2.250
R10 10 11 2.250
R11 11 12 2.250
R12 12 13 2.250
R13 13 14 2.250
R14 14 15 2.250
R15 15 16 2.250
R16 16 17 2.250
R17 17 18 2.250
R18 18 19 2.250
R19 19 201 2.250
R20 1  101 2.250
D1  500 101 IDS_diode
D2  500 201 IDS_diode
L1  INPUT1  100  400p
L2  OUTPUT1 200  400p
L3  500   501    25p
R200 201  200    0.020
R100 100  101    0.020
R300 501  PADGND 0.2
.model IDS_diode D (VJ = 600m BV = 8 CJO = 13.500p M = 360m)
.ends PemiQFN_HM

* NXP Semiconductors
.subckt PemiQFN_HP INPUT1 PADGND OUTPUT1
C1  1   500 .053p
C2  2   500 .053p
C3  3   500 .053p
C4  4   500 .053p
C5  5   500 .053p
C6  6   500 .053p
C7  7   500 .053p
C8  8   500 .053p
C9  9   500 .053p
C10 10  500 .053p
C11 11  500 .053p
C12 12  500 .053p
C13 13  500 .053p
C14 14  500 .053p
C15 15  500 .053p
C16 16  500 .053p
C17 17  500 .053p
C18 18  500 .053p
C19 19  500 .053p
R1  1  2  2.250
R2  2  3  2.250
R3  3  4  2.250
R4  4  5  2.250
R5  5  6  2.250
R6  6  7  2.250
R7  7  8  2.250
R8  8  9  2.250
R9  9  10 2.250
R10 10 11 2.250
R11 11 12 2.250
R12 12 13 2.250
R13 13 14 2.250
R14 14 15 2.250
R15 15 16 2.250
R16 16 17 2.250
R17 17 18 2.250
R18 18 19 2.250
R19 19 201 2.250
R20 1  101 2.250
D1  500 101 IDS_diode
D2  500 201 IDS_diode
L1  INPUT1  100  400p
L2  OUTPUT1 200  400p
L3  500   501    25p
R200 201  200    0.020
R100 100  101    0.020
R300 501  PADGND 0.2
.model IDS_diode D (VJ = 600m BV = 8 CJO = 15.500p M = 360m)
.ends PemiQFN_HP

* NXP Semiconductors
.subckt PemiQFN_HR INPUT1 PADGND OUTPUT1
C1  1   500 .053p
C2  2   500 .053p
C3  3   500 .053p
C4  4   500 .053p
C5  5   500 .053p
C6  6   500 .053p
C7  7   500 .053p
C8  8   500 .053p
C9  9   500 .053p
C10 10  500 .053p
C11 11  500 .053p
C12 12  500 .053p
C13 13  500 .053p
C14 14  500 .053p
C15 15  500 .053p
C16 16  500 .053p
C17 17  500 .053p
C18 18  500 .053p
C19 19  500 .053p
R1  1  2  2.250
R2  2  3  2.250
R3  3  4  2.250
R4  4  5  2.250
R5  5  6  2.250
R6  6  7  2.250
R7  7  8  2.250
R8  8  9  2.250
R9  9  10 2.250
R10 10 11 2.250
R11 11 12 2.250
R12 12 13 2.250
R13 13 14 2.250
R14 14 15 2.250
R15 15 16 2.250
R16 16 17 2.250
R17 17 18 2.250
R18 18 19 2.250
R19 19 201 2.250
R20 1  101 2.250
D1  500 101 IDS_diode
D2  500 201 IDS_diode
L1  INPUT1  100  400p
L2  OUTPUT1 200  400p
L3  500   501    25p
R200 201  200    0.020
R100 100  101    0.020
R300 501  PADGND 0.2
.model IDS_diode D (VJ = 600m BV = 8 CJO = 17.500p M = 360m)
.ends PemiQFN_HR

* NXP Semiconductors
.subckt PemiQFN_HT INPUT1 PADGND OUTPUT1
C1  1   500 .053p
C2  2   500 .053p
C3  3   500 .053p
C4  4   500 .053p
C5  5   500 .053p
C6  6   500 .053p
C7  7   500 .053p
C8  8   500 .053p
C9  9   500 .053p
C10 10  500 .053p
C11 11  500 .053p
C12 12  500 .053p
C13 13  500 .053p
C14 14  500 .053p
C15 15  500 .053p
C16 16  500 .053p
C17 17  500 .053p
C18 18  500 .053p
C19 19  500 .053p
R1  1  2  2.250
R2  2  3  2.250
R3  3  4  2.250
R4  4  5  2.250
R5  5  6  2.250
R6  6  7  2.250
R7  7  8  2.250
R8  8  9  2.250
R9  9  10 2.250
R10 10 11 2.250
R11 11 12 2.250
R12 12 13 2.250
R13 13 14 2.250
R14 14 15 2.250
R15 15 16 2.250
R16 16 17 2.250
R17 17 18 2.250
R18 18 19 2.250
R19 19 201 2.250
R20 1  101 2.250
D1  500 101 IDS_diode
D2  500 201 IDS_diode
L1  INPUT1  100  400p
L2  OUTPUT1 200  400p
L3  500   501    25p
R200 201  200    0.020
R100 100  101    0.020
R300 501  PADGND 0.2
.model IDS_diode D (VJ = 600m BV = 8 CJO = 19.500p M = 360m)
.ends PemiQFN_HT

* NXP Semiconductors
.subckt PemiQFN_LE INPUT1 PADGND OUTPUT1
C1  1   500 .053p
C2  2   500 .053p
C3  3   500 .053p
C4  4   500 .053p
C5  5   500 .053p
C6  6   500 .053p
C7  7   500 .053p
C8  8   500 .053p
C9  9   500 .053p
C10 10  500 .053p
C11 11  500 .053p
C12 12  500 .053p
C13 13  500 .053p
C14 14  500 .053p
C15 15  500 .053p
C16 16  500 .053p
C17 17  500 .053p
C18 18  500 .053p
C19 19  500 .053p
R1  1  2  3.250
R2  2  3  3.250
R3  3  4  3.250
R4  4  5  3.250
R5  5  6  3.250
R6  6  7  3.250
R7  7  8  3.250
R8  8  9  3.250
R9  9  10 3.250
R10 10 11 3.250
R11 11 12 3.250
R12 12 13 3.250
R13 13 14 3.250
R14 14 15 3.250
R15 15 16 3.250
R16 16 17 3.250
R17 17 18 3.250
R18 18 19 3.250
R19 19 201 3.250
R20 1  101 3.250
D1  500 101 IDS_diode
D2  500 201 IDS_diode
L1  INPUT1  100  400p
L2  OUTPUT1 200  400p
L3  500   501    25p
R200 201  200    0.020
R100 100  101    0.020
R300 501  PADGND 0.2
.model IDS_diode D (VJ = 600m BV = 8 CJO = 7.000p M = 360m)
.ends PemiQFN_LE

* NXP Semiconductors
.subckt PemiQFN_LG INPUT1 PADGND OUTPUT1
C1  1   500 .053p
C2  2   500 .053p
C3  3   500 .053p
C4  4   500 .053p
C5  5   500 .053p
C6  6   500 .053p
C7  7   500 .053p
C8  8   500 .053p
C9  9   500 .053p
C10 10  500 .053p
C11 11  500 .053p
C12 12  500 .053p
C13 13  500 .053p
C14 14  500 .053p
C15 15  500 .053p
C16 16  500 .053p
C17 17  500 .053p
C18 18  500 .053p
C19 19  500 .053p
R1  1  2  3.250
R2  2  3  3.250
R3  3  4  3.250
R4  4  5  3.250
R5  5  6  3.250
R6  6  7  3.250
R7  7  8  3.250
R8  8  9  3.250
R9  9  10 3.250
R10 10 11 3.250
R11 11 12 3.250
R12 12 13 3.250
R13 13 14 3.250
R14 14 15 3.250
R15 15 16 3.250
R16 16 17 3.250
R17 17 18 3.250
R18 18 19 3.250
R19 19 201 3.250
R20 1  101 3.250
D1  500 101 IDS_diode
D2  500 201 IDS_diode
L1  INPUT1  100  400p
L2  OUTPUT1 200  400p
L3  500   501    25p
R200 201  200    0.020
R100 100  101    0.020
R300 501  PADGND 0.2
.model IDS_diode D (VJ = 600m BV = 8 CJO = 9.000p M = 360m)
.ends PemiQFN_LG

* NXP Semiconductors
.subckt PemiQFN_LK INPUT1 PADGND OUTPUT1
C1  1   500 .053p
C2  2   500 .053p
C3  3   500 .053p
C4  4   500 .053p
C5  5   500 .053p
C6  6   500 .053p
C7  7   500 .053p
C8  8   500 .053p
C9  9   500 .053p
C10 10  500 .053p
C11 11  500 .053p
C12 12  500 .053p
C13 13  500 .053p
C14 14  500 .053p
C15 15  500 .053p
C16 16  500 .053p
C17 17  500 .053p
C18 18  500 .053p
C19 19  500 .053p
R1  1  2  3.250
R2  2  3  3.250
R3  3  4  3.250
R4  4  5  3.250
R5  5  6  3.250
R6  6  7  3.250
R7  7  8  3.250
R8  8  9  3.250
R9  9  10 3.250
R10 10 11 3.250
R11 11 12 3.250
R12 12 13 3.250
R13 13 14 3.250
R14 14 15 3.250
R15 15 16 3.250
R16 16 17 3.250
R17 17 18 3.250
R18 18 19 3.250
R19 19 201 3.250
R20 1  101 3.250
D1  500 101 IDS_diode
D2  500 201 IDS_diode
L1  INPUT1  100  400p
L2  OUTPUT1 200  400p
L3  500   501    25p
R200 201  200    0.020
R100 100  101    0.020
R300 501  PADGND 0.2
.model IDS_diode D (VJ = 600m BV = 8 CJO = 11.000p M = 360m)
.ends PemiQFN_LK

* NXP Semiconductors
.subckt PemiQFN_LM INPUT1 PADGND OUTPUT1
C1  1   500 .053p
C2  2   500 .053p
C3  3   500 .053p
C4  4   500 .053p
C5  5   500 .053p
C6  6   500 .053p
C7  7   500 .053p
C8  8   500 .053p
C9  9   500 .053p
C10 10  500 .053p
C11 11  500 .053p
C12 12  500 .053p
C13 13  500 .053p
C14 14  500 .053p
C15 15  500 .053p
C16 16  500 .053p
C17 17  500 .053p
C18 18  500 .053p
C19 19  500 .053p
R1  1  2  3.250
R2  2  3  3.250
R3  3  4  3.250
R4  4  5  3.250
R5  5  6  3.250
R6  6  7  3.250
R7  7  8  3.250
R8  8  9  3.250
R9  9  10 3.250
R10 10 11 3.250
R11 11 12 3.250
R12 12 13 3.250
R13 13 14 3.250
R14 14 15 3.250
R15 15 16 3.250
R16 16 17 3.250
R17 17 18 3.250
R18 18 19 3.250
R19 19 201 3.250
R20 1  101 3.250
D1  500 101 IDS_diode
D2  500 201 IDS_diode
L1  INPUT1  100  400p
L2  OUTPUT1 200  400p
L3  500   501    25p
R200 201  200    0.020
R100 100  101    0.020
R300 501  PADGND 0.2
.model IDS_diode D (VJ = 600m BV = 8 CJO = 13.500p M = 360m)
.ends PemiQFN_LM

* NXP Semiconductors
.subckt PemiQFN_LP INPUT1 PADGND OUTPUT1
C1  1   500 .053p
C2  2   500 .053p
C3  3   500 .053p
C4  4   500 .053p
C5  5   500 .053p
C6  6   500 .053p
C7  7   500 .053p
C8  8   500 .053p
C9  9   500 .053p
C10 10  500 .053p
C11 11  500 .053p
C12 12  500 .053p
C13 13  500 .053p
C14 14  500 .053p
C15 15  500 .053p
C16 16  500 .053p
C17 17  500 .053p
C18 18  500 .053p
C19 19  500 .053p
R1  1  2  3.250
R2  2  3  3.250
R3  3  4  3.250
R4  4  5  3.250
R5  5  6  3.250
R6  6  7  3.250
R7  7  8  3.250
R8  8  9  3.250
R9  9  10 3.250
R10 10 11 3.250
R11 11 12 3.250
R12 12 13 3.250
R13 13 14 3.250
R14 14 15 3.250
R15 15 16 3.250
R16 16 17 3.250
R17 17 18 3.250
R18 18 19 3.250
R19 19 201 3.250
R20 1  101 3.250
D1  500 101 IDS_diode
D2  500 201 IDS_diode
L1  INPUT1  100  400p
L2  OUTPUT1 200  400p
L3  500   501    25p
R200 201  200    0.020
R100 100  101    0.020
R300 501  PADGND 0.2
.model IDS_diode D (VJ = 600m BV = 8 CJO = 15.500p M = 360m)
.ends PemiQFN_LP

* NXP Semiconductors
.subckt PemiQFN_LR INPUT1 PADGND OUTPUT1
C1  1   500 .053p
C2  2   500 .053p
C3  3   500 .053p
C4  4   500 .053p
C5  5   500 .053p
C6  6   500 .053p
C7  7   500 .053p
C8  8   500 .053p
C9  9   500 .053p
C10 10  500 .053p
C11 11  500 .053p
C12 12  500 .053p
C13 13  500 .053p
C14 14  500 .053p
C15 15  500 .053p
C16 16  500 .053p
C17 17  500 .053p
C18 18  500 .053p
C19 19  500 .053p
R1  1  2  3.250
R2  2  3  3.250
R3  3  4  3.250
R4  4  5  3.250
R5  5  6  3.250
R6  6  7  3.250
R7  7  8  3.250
R8  8  9  3.250
R9  9  10 3.250
R10 10 11 3.250
R11 11 12 3.250
R12 12 13 3.250
R13 13 14 3.250
R14 14 15 3.250
R15 15 16 3.250
R16 16 17 3.250
R17 17 18 3.250
R18 18 19 3.250
R19 19 201 3.250
R20 1  101 3.250
D1  500 101 IDS_diode
D2  500 201 IDS_diode
L1  INPUT1  100  400p
L2  OUTPUT1 200  400p
L3  500   501    25p
R200 201  200    0.020
R100 100  101    0.020
R300 501  PADGND 0.2
.model IDS_diode D (VJ = 600m BV = 8 CJO = 17.500p M = 360m)
.ends PemiQFN_LR

* NXP Semiconductors
.subckt PemiQFN_LT INPUT1 PADGND OUTPUT1
C1  1   500 .053p
C2  2   500 .053p
C3  3   500 .053p
C4  4   500 .053p
C5  5   500 .053p
C6  6   500 .053p
C7  7   500 .053p
C8  8   500 .053p
C9  9   500 .053p
C10 10  500 .053p
C11 11  500 .053p
C12 12  500 .053p
C13 13  500 .053p
C14 14  500 .053p
C15 15  500 .053p
C16 16  500 .053p
C17 17  500 .053p
C18 18  500 .053p
C19 19  500 .053p
R1  1  2  3.250
R2  2  3  3.250
R3  3  4  3.250
R4  4  5  3.250
R5  5  6  3.250
R6  6  7  3.250
R7  7  8  3.250
R8  8  9  3.250
R9  9  10 3.250
R10 10 11 3.250
R11 11 12 3.250
R12 12 13 3.250
R13 13 14 3.250
R14 14 15 3.250
R15 15 16 3.250
R16 16 17 3.250
R17 17 18 3.250
R18 18 19 3.250
R19 19 201 3.250
R20 1  101 3.250
D1  500 101 IDS_diode
D2  500 201 IDS_diode
L1  INPUT1  100  400p
L2  OUTPUT1 200  400p
L3  500   501    25p
R200 201  200    0.020
R100 100  101    0.020
R300 501  PADGND 0.2
.model IDS_diode D (VJ = 600m BV = 8 CJO = 19.500p M = 360m)
.ends PemiQFN_LT

* NXP Semiconductors
.subckt PemiQFN_RE INPUT1 PADGND OUTPUT1
C1  1   500 .053p
C2  2   500 .053p
C3  3   500 .053p
C4  4   500 .053p
C5  5   500 .053p
C6  6   500 .053p
C7  7   500 .053p
C8  8   500 .053p
C9  9   500 .053p
C10 10  500 .053p
C11 11  500 .053p
C12 12  500 .053p
C13 13  500 .053p
C14 14  500 .053p
C15 15  500 .053p
C16 16  500 .053p
C17 17  500 .053p
C18 18  500 .053p
C19 19  500 .053p
R1  1  2  5.000
R2  2  3  5.000
R3  3  4  5.000
R4  4  5  5.000
R5  5  6  5.000
R6  6  7  5.000
R7  7  8  5.000
R8  8  9  5.000
R9  9  10 5.000
R10 10 11 5.000
R11 11 12 5.000
R12 12 13 5.000
R13 13 14 5.000
R14 14 15 5.000
R15 15 16 5.000
R16 16 17 5.000
R17 17 18 5.000
R18 18 19 5.000
R19 19 201 5.000
R20 1  101 5.000
D1  500 101 IDS_diode
D2  500 201 IDS_diode
L1  INPUT1  100  400p
L2  OUTPUT1 200  400p
L3  500   501    25p
R200 201  200    0.020
R100 100  101    0.020
R300 501  PADGND 0.2
.model IDS_diode D (VJ = 600m BV = 8 CJO = 7.000p M = 360m)
.ends PemiQFN_RE

* NXP Semiconductors
.subckt PemiQFN_RG INPUT1 PADGND OUTPUT1
C1  1   500 .053p
C2  2   500 .053p
C3  3   500 .053p
C4  4   500 .053p
C5  5   500 .053p
C6  6   500 .053p
C7  7   500 .053p
C8  8   500 .053p
C9  9   500 .053p
C10 10  500 .053p
C11 11  500 .053p
C12 12  500 .053p
C13 13  500 .053p
C14 14  500 .053p
C15 15  500 .053p
C16 16  500 .053p
C17 17  500 .053p
C18 18  500 .053p
C19 19  500 .053p
R1  1  2  5.000
R2  2  3  5.000
R3  3  4  5.000
R4  4  5  5.000
R5  5  6  5.000
R6  6  7  5.000
R7  7  8  5.000
R8  8  9  5.000
R9  9  10 5.000
R10 10 11 5.000
R11 11 12 5.000
R12 12 13 5.000
R13 13 14 5.000
R14 14 15 5.000
R15 15 16 5.000
R16 16 17 5.000
R17 17 18 5.000
R18 18 19 5.000
R19 19 201 5.000
R20 1  101 5.000
D1  500 101 IDS_diode
D2  500 201 IDS_diode
L1  INPUT1  100  400p
L2  OUTPUT1 200  400p
L3  500   501    25p
R200 201  200    0.020
R100 100  101    0.020
R300 501  PADGND 0.2
.model IDS_diode D (VJ = 600m BV = 8 CJO = 9.000p M = 360m)
.ends PemiQFN_RG

* NXP Semiconductors
.subckt PemiQFN_RK INPUT1 PADGND OUTPUT1
C1  1   500 .053p
C2  2   500 .053p
C3  3   500 .053p
C4  4   500 .053p
C5  5   500 .053p
C6  6   500 .053p
C7  7   500 .053p
C8  8   500 .053p
C9  9   500 .053p
C10 10  500 .053p
C11 11  500 .053p
C12 12  500 .053p
C13 13  500 .053p
C14 14  500 .053p
C15 15  500 .053p
C16 16  500 .053p
C17 17  500 .053p
C18 18  500 .053p
C19 19  500 .053p
R1  1  2  5.000
R2  2  3  5.000
R3  3  4  5.000
R4  4  5  5.000
R5  5  6  5.000
R6  6  7  5.000
R7  7  8  5.000
R8  8  9  5.000
R9  9  10 5.000
R10 10 11 5.000
R11 11 12 5.000
R12 12 13 5.000
R13 13 14 5.000
R14 14 15 5.000
R15 15 16 5.000
R16 16 17 5.000
R17 17 18 5.000
R18 18 19 5.000
R19 19 201 5.000
R20 1  101 5.000
D1  500 101 IDS_diode
D2  500 201 IDS_diode
L1  INPUT1  100  400p
L2  OUTPUT1 200  400p
L3  500   501    25p
R200 201  200    0.020
R100 100  101    0.020
R300 501  PADGND 0.2
.model IDS_diode D (VJ = 600m BV = 8 CJO = 11.000p M = 360m)
.ends PemiQFN_RK

* NXP Semiconductors
.subckt PemiQFN_RM INPUT1 PADGND OUTPUT1
C1  1   500 .053p
C2  2   500 .053p
C3  3   500 .053p
C4  4   500 .053p
C5  5   500 .053p
C6  6   500 .053p
C7  7   500 .053p
C8  8   500 .053p
C9  9   500 .053p
C10 10  500 .053p
C11 11  500 .053p
C12 12  500 .053p
C13 13  500 .053p
C14 14  500 .053p
C15 15  500 .053p
C16 16  500 .053p
C17 17  500 .053p
C18 18  500 .053p
C19 19  500 .053p
R1  1  2  5.000
R2  2  3  5.000
R3  3  4  5.000
R4  4  5  5.000
R5  5  6  5.000
R6  6  7  5.000
R7  7  8  5.000
R8  8  9  5.000
R9  9  10 5.000
R10 10 11 5.000
R11 11 12 5.000
R12 12 13 5.000
R13 13 14 5.000
R14 14 15 5.000
R15 15 16 5.000
R16 16 17 5.000
R17 17 18 5.000
R18 18 19 5.000
R19 19 201 5.000
R20 1  101 5.000
D1  500 101 IDS_diode
D2  500 201 IDS_diode
L1  INPUT1  100  400p
L2  OUTPUT1 200  400p
L3  500   501    25p
R200 201  200    0.020
R100 100  101    0.020
R300 501  PADGND 0.2
.model IDS_diode D (VJ = 600m BV = 8 CJO = 13.500p M = 360m)
.ends PemiQFN_RM

* NXP Semiconductors
.subckt PemiQFN_RP INPUT1 PADGND OUTPUT1
C1  1   500 .053p
C2  2   500 .053p
C3  3   500 .053p
C4  4   500 .053p
C5  5   500 .053p
C6  6   500 .053p
C7  7   500 .053p
C8  8   500 .053p
C9  9   500 .053p
C10 10  500 .053p
C11 11  500 .053p
C12 12  500 .053p
C13 13  500 .053p
C14 14  500 .053p
C15 15  500 .053p
C16 16  500 .053p
C17 17  500 .053p
C18 18  500 .053p
C19 19  500 .053p
R1  1  2  5.000
R2  2  3  5.000
R3  3  4  5.000
R4  4  5  5.000
R5  5  6  5.000
R6  6  7  5.000
R7  7  8  5.000
R8  8  9  5.000
R9  9  10 5.000
R10 10 11 5.000
R11 11 12 5.000
R12 12 13 5.000
R13 13 14 5.000
R14 14 15 5.000
R15 15 16 5.000
R16 16 17 5.000
R17 17 18 5.000
R18 18 19 5.000
R19 19 201 5.000
R20 1  101 5.000
D1  500 101 IDS_diode
D2  500 201 IDS_diode
L1  INPUT1  100  400p
L2  OUTPUT1 200  400p
L3  500   501    25p
R200 201  200    0.020
R100 100  101    0.020
R300 501  PADGND 0.2
.model IDS_diode D (VJ = 600m BV = 8 CJO = 15.500p M = 360m)
.ends PemiQFN_RP

* NXP Semiconductors
.subckt PemiQFN_RR INPUT1 PADGND OUTPUT1
C1  1   500 .053p
C2  2   500 .053p
C3  3   500 .053p
C4  4   500 .053p
C5  5   500 .053p
C6  6   500 .053p
C7  7   500 .053p
C8  8   500 .053p
C9  9   500 .053p
C10 10  500 .053p
C11 11  500 .053p
C12 12  500 .053p
C13 13  500 .053p
C14 14  500 .053p
C15 15  500 .053p
C16 16  500 .053p
C17 17  500 .053p
C18 18  500 .053p
C19 19  500 .053p
R1  1  2  5.000
R2  2  3  5.000
R3  3  4  5.000
R4  4  5  5.000
R5  5  6  5.000
R6  6  7  5.000
R7  7  8  5.000
R8  8  9  5.000
R9  9  10 5.000
R10 10 11 5.000
R11 11 12 5.000
R12 12 13 5.000
R13 13 14 5.000
R14 14 15 5.000
R15 15 16 5.000
R16 16 17 5.000
R17 17 18 5.000
R18 18 19 5.000
R19 19 201 5.000
R20 1  101 5.000
D1  500 101 IDS_diode
D2  500 201 IDS_diode
L1  INPUT1  100  400p
L2  OUTPUT1 200  400p
L3  500   501    25p
R200 201  200    0.020
R100 100  101    0.020
R300 501  PADGND 0.2
.model IDS_diode D (VJ = 600m BV = 8 CJO = 17.500p M = 360m)
.ends PemiQFN_RR

* NXP Semiconductors
.subckt PemiQFN_RT INPUT1 PADGND OUTPUT1
C1  1   500 .053p
C2  2   500 .053p
C3  3   500 .053p
C4  4   500 .053p
C5  5   500 .053p
C6  6   500 .053p
C7  7   500 .053p
C8  8   500 .053p
C9  9   500 .053p
C10 10  500 .053p
C11 11  500 .053p
C12 12  500 .053p
C13 13  500 .053p
C14 14  500 .053p
C15 15  500 .053p
C16 16  500 .053p
C17 17  500 .053p
C18 18  500 .053p
C19 19  500 .053p
R1  1  2  5.000
R2  2  3  5.000
R3  3  4  5.000
R4  4  5  5.000
R5  5  6  5.000
R6  6  7  5.000
R7  7  8  5.000
R8  8  9  5.000
R9  9  10 5.000
R10 10 11 5.000
R11 11 12 5.000
R12 12 13 5.000
R13 13 14 5.000
R14 14 15 5.000
R15 15 16 5.000
R16 16 17 5.000
R17 17 18 5.000
R18 18 19 5.000
R19 19 201 5.000
R20 1  101 5.000
D1  500 101 IDS_diode
D2  500 201 IDS_diode
L1  INPUT1  100  400p
L2  OUTPUT1 200  400p
L3  500   501    25p
R200 201  200    0.020
R100 100  101    0.020
R300 501  PADGND 0.2
.model IDS_diode D (VJ = 600m BV = 8 CJO = 19.500p M = 360m)
.ends PemiQFN_RT

* NXP Semiconductors
.subckt PemiQFN_WE INPUT1 PADGND OUTPUT1
C1  1   500 .053p
C2  2   500 .053p
C3  3   500 .053p
C4  4   500 .053p
C5  5   500 .053p
C6  6   500 .053p
C7  7   500 .053p
C8  8   500 .053p
C9  9   500 .053p
C10 10  500 .053p
C11 11  500 .053p
C12 12  500 .053p
C13 13  500 .053p
C14 14  500 .053p
C15 15  500 .053p
C16 16  500 .053p
C17 17  500 .053p
C18 18  500 .053p
C19 19  500 .053p
R1  1  2  10.000
R2  2  3  10.000
R3  3  4  10.000
R4  4  5  10.000
R5  5  6  10.000
R6  6  7  10.000
R7  7  8  10.000
R8  8  9  10.000
R9  9  10 10.000
R10 10 11 10.000
R11 11 12 10.000
R12 12 13 10.000
R13 13 14 10.000
R14 14 15 10.000
R15 15 16 10.000
R16 16 17 10.000
R17 17 18 10.000
R18 18 19 10.000
R19 19 201 10.000
R20 1  101 10.000
D1  500 101 IDS_diode
D2  500 201 IDS_diode
L1  INPUT1  100  400p
L2  OUTPUT1 200  400p
L3  500   501    25p
R200 201  200    0.020
R100 100  101    0.020
R300 501  PADGND 0.2
.model IDS_diode D (VJ = 600m BV = 8 CJO = 7.000p M = 360m)
.ends PemiQFN_WE

* NXP Semiconductors
.subckt PemiQFN_WG INPUT1 PADGND OUTPUT1
C1  1   500 .053p
C2  2   500 .053p
C3  3   500 .053p
C4  4   500 .053p
C5  5   500 .053p
C6  6   500 .053p
C7  7   500 .053p
C8  8   500 .053p
C9  9   500 .053p
C10 10  500 .053p
C11 11  500 .053p
C12 12  500 .053p
C13 13  500 .053p
C14 14  500 .053p
C15 15  500 .053p
C16 16  500 .053p
C17 17  500 .053p
C18 18  500 .053p
C19 19  500 .053p
R1  1  2  10.000
R2  2  3  10.000
R3  3  4  10.000
R4  4  5  10.000
R5  5  6  10.000
R6  6  7  10.000
R7  7  8  10.000
R8  8  9  10.000
R9  9  10 10.000
R10 10 11 10.000
R11 11 12 10.000
R12 12 13 10.000
R13 13 14 10.000
R14 14 15 10.000
R15 15 16 10.000
R16 16 17 10.000
R17 17 18 10.000
R18 18 19 10.000
R19 19 201 10.000
R20 1  101 10.000
D1  500 101 IDS_diode
D2  500 201 IDS_diode
L1  INPUT1  100  400p
L2  OUTPUT1 200  400p
L3  500   501    25p
R200 201  200    0.020
R100 100  101    0.020
R300 501  PADGND 0.2
.model IDS_diode D (VJ = 600m BV = 8 CJO = 9.000p M = 360m)
.ends PemiQFN_WG

* NXP Semiconductors
.subckt PemiQFN_WK INPUT1 PADGND OUTPUT1
C1  1   500 .053p
C2  2   500 .053p
C3  3   500 .053p
C4  4   500 .053p
C5  5   500 .053p
C6  6   500 .053p
C7  7   500 .053p
C8  8   500 .053p
C9  9   500 .053p
C10 10  500 .053p
C11 11  500 .053p
C12 12  500 .053p
C13 13  500 .053p
C14 14  500 .053p
C15 15  500 .053p
C16 16  500 .053p
C17 17  500 .053p
C18 18  500 .053p
C19 19  500 .053p
R1  1  2  10.000
R2  2  3  10.000
R3  3  4  10.000
R4  4  5  10.000
R5  5  6  10.000
R6  6  7  10.000
R7  7  8  10.000
R8  8  9  10.000