*** On Semi BJTs

*** Audio Transistors

.SUBCKT njl0281dg 1 2 3 4 5
*******************************************
* Model Generated by ON Discrete Eval Lab *
*    Copyright(c) ON Semiconductor        *
*         All Rights Reserved             *
*      UNPUBLISHED LICENSED SOFTWARE      *
*     Contains Proprietary Information    *
*                                         *
*   Commercial Use or Resale Restricted   *
*******************************************
* Model generated on Jan 18, 06
* MODEL FORMAT: PSpice
*        base emitter collector anode cathode
*node:    1      2        3       4      5
*
Q1   3   1   2   Qnjl0281dg_bjt
D1   4   5       Dnjl0281dg_diode
*
.MODEL Qnjl0281dg_bjt npn
+IS=7.35019e-14 BF=113.063 NF=1.21951 VAF=10.158
+IKF=8.51404 ISE=8.83106e-12 NE=2.0497 BR=4.9071
+NR=1.25326 VAR=8.60208 IKR=6.78731 ISC=3.59743e-13
+NC=3.99215 RB=0.526348 IRB=0.1 RBM=0.526348
+RE=0.000612798 RC=0.0302655 XTB=0.1 XTI=1
+EG=1.05 CJE=5.60463e-09 VJE=0.600913 MJE=0.848202
+TF=2.07647e-09 XTF=1000 VTF=4157.4 ITF=217.206
+CJC=4.77948e-10 VJC=0.528497 MJC=0.23 XCJC=1
+FC=0.430232 CJS=0 VJS=0.75 MJS=0.5
+TR=1e-07 PTF=0 KF=0 AF=1
.MODEL Dnjl0281dg_diode d
+IS=5.17122e-08 RS=0.0324668 N=1.78236 EG=1.12011
+XTI=0.5 BV=200 IBV=2e-06 CJO=5.59229e-11
+VJ=0.4 M=0.346657 FC=0.5 TT=2.59685e-08
+KF=0 AF=1
.ENDS njl0281dg

.SUBCKT njl0302dg 1 2 3 4 5
*******************************************
* Model Generated by ON Discrete Eval Lab *
*    Copyright(c) ON Semiconductor        *
*         All Rights Reserved             *
*      UNPUBLISHED LICENSED SOFTWARE      *
*     Contains Proprietary Information    *
*                                         *
*   Commercial Use or Resale Restricted   *
*******************************************
* Model generated on Jan 18, 06
* MODEL FORMAT: PSpice
*        base emitter collector anode cathode
*node:    1      2        3       4      5
*
Q1   3   1   2   Qnjl0302dg_bjt
D1   4   5       Dnjl0302dg_diode
*
.MODEL Qnjl0302dg_bjt pnp
+IS=1.68444e-12 BF=84.9671 NF=0.992223 VAF=10.01
+IKF=7.49667 ISE=1e-08 NE=2.87955 BR=8.49671
+NR=0.990995 VAR=99.9986 IKR=0.382704 ISC=3.81183e-16
+NC=1 RB=4.23352 IRB=0.1 RBM=4.23351
+RE=0.00779693 RC=0.0390712 XTB=1.60824 XTI=3.9999
+EG=1.20458 CJE=1.56322e-08 VJE=0.99 MJE=0.23
+TF=1.97297e-09 XTF=1000 VTF=817.29 ITF=453.232
+CJC=5e-10 VJC=0.95 MJC=0.23 XCJC=0.756601
+FC=0.8 CJS=0 VJS=0.75 MJS=0.5
+TR=1e-07 PTF=0 KF=0 AF=1
.MODEL Dnjl0302dg_diode d
+IS=5.17122e-08 RS=0.0324668 N=1.78236 EG=1.12011
+XTI=0.5 BV=200 IBV=2e-06 CJO=5.59229e-11
+VJ=0.4 M=0.346657 FC=0.5 TT=2.59685e-08
+KF=0 AF=1
.ENDS njl0302dg

.SUBCKT njl21193dg 1 2 3 4 5
*******************************************
* Model Generated by ON Discrete Eval Lab *
*    Copyright(c) ON Semiconductor        *
*         All Rights Reserved             *
*      UNPUBLISHED LICENSED SOFTWARE      *
*     Contains Proprietary Information    *
*                                         *
*   Commercial Use or Resale Restricted   *
*******************************************
* Model generated on Jan 20, 06
* MODEL FORMAT: PSpice
*        base emitter collector anode cathode
*node:    1      2        3       4      5
*
Q1   3   1   2   Qnjl21193dg_bjt
D1   4   5       Dnjl21193dg_diode
*
.MODEL Qnjl21193dg_bjt pnp
+IS=2.37302e-11 BF=92.8585 NF=0.85 VAF=1000
+IKF=7.81463 ISE=9.34142e-13 NE=1.83168 BR=1.39987
+NR=0.905395 VAR=421.163 IKR=1.8668 ISC=9.34142e-13
+NC=3.03125 RB=14.6266 IRB=0.1 RBM=0.149902
+RE=0.000682292 RC=0.146081 XTB=1.32633 XTI=1.05623
+EG=1.05 CJE=1.15773e-08 VJE=0.57352 MJE=0.417157
+TF=1e-08 XTF=1.946 VTF=17401.6 ITF=3.36265
+CJC=5e-10 VJC=0.95 MJC=0.23891 XCJC=0.999998
+FC=0.987529 CJS=0 VJS=0.75 MJS=0.5
+TR=1e-07 PTF=0 KF=0 AF=1
.MODEL Dnjl21193dg_diode d
+IS=5.17122e-08 RS=0.0324668 N=1.78236 EG=1.12011
+XTI=0.5 BV=200 IBV=2e-06 CJO=5.59229e-11
+VJ=0.4 M=0.346657 FC=0.5 TT=2.59685e-08
+KF=0 AF=1
.ENDS njl21193dg

.SUBCKT njl21194dg 1 2 3 4 5
*******************************************
* Model Generated by ON Discrete Eval Lab *
*    Copyright(c) ON Semiconductor        *
*         All Rights Reserved             *
*      UNPUBLISHED LICENSED SOFTWARE      *
*     Contains Proprietary Information    *
*                                         *
*   Commercial Use or Resale Restricted   *
*******************************************
* Model generated on Jan 20, 06
* MODEL FORMAT: PSpice
*        base emitter collector anode cathode
*node:    1      2        3       4      5
*
Q1   3   1   2   Qnjl21194dg_bjt
D1   4   5       Dnjl21194dg_diode
*
.MODEL Qnjl21194dg_bjt npn
+IS=9.56205e-11 BF=62.3633 NF=0.858602 VAF=29.6613
+IKF=9.86004 ISE=7.00007e-12 NE=3.43749 BR=4.96358
+NR=0.925054 VAR=6.18692 IKR=4.87016 ISC=3.25e-13
+NC=4 RB=11.0204 IRB=0.1 RBM=0.1
+RE=0.000675706 RC=0.124974 XTB=0.150823 XTI=1.00001
+EG=1.11955 CJE=1.70807e-08 VJE=0.4 MJE=0.520397
+TF=1e-08 XTF=47.3046 VTF=1.88154 ITF=0.560261
+CJC=5e-10 VJC=0.95 MJC=0.238884 XCJC=0.800727
+FC=0.8 CJS=0 VJS=0.75 MJS=0.5
+TR=1e-07 PTF=0 KF=0 AF=1
.MODEL Dnjl21194dg_diode d
+IS=5.17122e-08 RS=0.0324668 N=1.78236 EG=1.12011
+XTI=0.5 BV=200 IBV=2e-06 CJO=5.59229e-11
+VJ=0.4 M=0.346657 FC=0.5 TT=2.59685e-08
+KF=0 AF=1

.ENDS njl21194dg

.SUBCKT njl4281dg 1 2 3 4 5
*******************************************
* Model Generated by ON Discrete Eval Lab *
*    Copyright(c) ON Semiconductor        *
*         All Rights Reserved             *
*      UNPUBLISHED LICENSED SOFTWARE      *
*     Contains Proprietary Information    *
*                                         *
*   Commercial Use or Resale Restricted   *
*******************************************
* Model generated on Feb 03, 06
* MODEL FORMAT: PSpice
*        base emitter collector anode cathode
*node:    1      2        3       4      5
*
Q1   3   1   2   Qnjl4281dg_bjt
D1   4   5       Dnjl4281dg_diode
*
.MODEL Qnjl4281dg_bjt npn
+IS=1.28825e-11 BF=300 NF=1.02019 VAF=10.7547
+IKF=0.97929 ISE=2.28745e-11 NE=1.44568 BR=0.1
+NR=1.29449 VAR=4.22157 IKR=9.7929 ISC=1.04073e-16
+NC=2.85967 RB=1.34764 IRB=0.140361 RBM=0.1
+RE=0.00828762 RC=0.0414381 XTB=0.1 XTI=1
+EG=1.05 CJE=2.34884e-08 VJE=22.295 MJE=0.69263
+TF=1.28186e-09 XTF=131.233 VTF=63578.9 ITF=53.7291
+CJC=4.85466e-10 VJC=0.95 MJC=0.23 XCJC=1
+FC=0.8 CJS=0 VJS=0.75 MJS=0.5
+TR=1e-07 PTF=0 KF=0 AF=1
.MODEL Dnjl4281dg_diode d
+IS=3.44393e-08 RS=0.179036 N=2 EG=1.3
+XTI=2.33354 BV=400 IBV=1e-05 CJO=2.08272e-11
+VJ=1.5 M=0.653713 FC=0.5 TT=5.1937e-08
+KF=0 AF=1
.ENDS njl4281dg

.SUBCKT njl4302dg 1 2 3 4 5
*******************************************
* Model Generated by ON Discrete Eval Lab *
*    Copyright(c) ON Semiconductor        *
*         All Rights Reserved             *
*      UNPUBLISHED LICENSED SOFTWARE      *
*     Contains Proprietary Information    *
*                                         *
*   Commercial Use or Resale Restricted   *
*******************************************
* Model generated on Feb 03, 06
* MODEL FORMAT: PSpice
*        base emitter collector anode cathode
*node:    1      2        3       4      5
*
Q1   3   1   2   Qnjl4302dg_bjt
D1   4   5       Dnjl4302dg_diode
*
.MODEL Qnjl4302dg_bjt pnp
+IS=3.25338e-14 BF=108.5 NF=0.85 VAF=10
+IKF=1.18382 ISE=2.89523e-13 NE=1.1985 BR=0.100727
+NR=1.08725 VAR=97.7807 IKR=1e-05 ISC=2.05388e-13
+NC=3.23408 RB=0.876821 IRB=0.1 RBM=0.876821
+RE=0.00441506 RC=0.0220753 XTB=5.59761 XTI=4
+EG=1.206 CJE=1.56701e-08 VJE=0.99 MJE=0.542371
+TF=1.8605e-09 XTF=1000 VTF=100000 ITF=245.118
+CJC=5e-10 VJC=0.95 MJC=0.23 XCJC=1
+FC=0.8 CJS=0 VJS=0.75 MJS=0.5
+TR=1e-07 PTF=0 KF=0 AF=1
.MODEL Dnjl4302dg_diode d
+IS=3.44393e-08 RS=0.179036 N=2 EG=1.3
+XTI=2.33354 BV=400 IBV=1e-05 CJO=2.08272e-11
+VJ=1.5 M=0.653713 FC=0.5 TT=5.1937e-08
+KF=0 AF=1
.ENDS njl4302dg

**************************************
*      Model Generated by MODPEX     *
*Copyright(c) Symmetry Design Systems*
*         All Rights Reserved        *
*    UNPUBLISHED LICENSED SOFTWARE   *
*   Contains Proprietary Information *
*      Which is The Property of      *
*     SYMMETRY OR ITS LICENSORS      *
*    Modeling services provided by   *
* Interface Technologies www.i-t.com *
**************************************
.MODEL mjd253t4 pnp
+IS=8.74368e-11 BF=124.535 NF=1.5 VAF=17.4768
+IKF=1.74007 ISE=9.21823e-12 NE=3.28984 BR=3.77035
+NR=1.5 VAR=1.69648 IKR=4.90124 ISC=4e-13
+NC=4 RB=0.1 IRB=0.1 RBM=0.1
+RE=0.000676782 RC=0.176182 XTB=0.1 XTI=1.05938
+EG=1.05 CJE=1.64427e-10 VJE=0.99 MJE=0.346932
+TF=4e-10 XTF=1.5 VTF=1 ITF=1
+CJC=4.36804e-11 VJC=0.4 MJC=0.265038 XCJC=0.8
+FC=0.533333 CJS=0 VJS=0.75 MJS=0.5
+TR=1e-07 PTF=0 KF=0 AF=1
* Model generated on Dec 17, 2003
* Model format: PSpice

* Model generated on Feb  6, 08
* MODEL FORMAT: PSpice
.MODEL njw1302g pnp
+IS=5.45163e-13 BF=100.173 NF=0.981788 VAF=10
+IKF=4.32732 ISE=6.43606e-12 NE=1.46233 BR=0.562437
+NR=1.095 VAR=100 IKR=0.0147402 ISC=6.43606e-12
+NC=1.3691 RB=3.70218 IRB=0.1 RBM=0.163972
+RE=0.00611492 RC=0.0305746 XTB=1.67324 XTI=1
+EG=1.05 CJE=1.1214e-08 VJE=0.663546 MJE=0.32843
+TF=2.35244e-09 XTF=79.0726 VTF=4.60515 ITF=95.9461
+CJC=5e-10 VJC=0.95 MJC=0.23 XCJC=0.901894
+FC=0.8 CJS=0 VJS=0.75 MJS=0.5
+TR=1e-07 PTF=0 KF=0 AF=1

* Model generated on Feb  8, 08
* MODEL FORMAT: PSpice
.MODEL njw21194g npn
+IS=3.48933e-11 BF=45.67 NF=1.02135 VAF=49.3642
+IKF=8.92673 ISE=6.25003e-12 NE=3.40625 BR=3.9226
+NR=1.05939 VAR=4.92388 IKR=6.4843 ISC=2.5e-13
+NC=4 RB=5.66017 IRB=0.1 RBM=0.1
+RE=0.000442708 RC=0.0362465 XTB=1.58789 XTI=1.00815
+EG=1.206 CJE=1.66556e-08 VJE=0.4 MJE=0.522998
+TF=1e-08 XTF=6.79756 VTF=11.5254 ITF=4.96757
+CJC=2.77998e-10 VJC=0.95 MJC=0.23 XCJC=0.1
+FC=0.8 CJS=0 VJS=0.75 MJS=0.5
+TR=1e-07 PTF=0 KF=0 AF=1

* Model generated on May  3, 07
* MODEL FORMAT: PSpice
.MODEL njl1302d pnp
+IS=9.82035e-11 BF=82.1357 NF=1.38754 VAF=10.043
+IKF=9.06286 ISE=6.57086e-12 NE=3.31141 BR=3.74385
+NR=1.6349 VAR=6.726 IKR=6.49075 ISC=2.50558e-13
+NC=3.99895 RB=3.68893 IRB=0.0183457 RBM=0.1
+RE=0.000386841 RC=0.093766 XTB=0.929578 XTI=1.31423
+EG=0.861487 CJE=1.51689e-08 VJE=0.922965 MJE=0.447498
+TF=2.75424e-09 XTF=1000 VTF=3.17307 ITF=255.984
+CJC=1e-09 VJC=0.95 MJC=0.235697 XCJC=1
+FC=0.707596 CJS=0 VJS=0.75 MJS=0.5
+TR=1e-07 PTF=0 KF=0 AF=1

* Model generated on Feb  8, 08
* MODEL FORMAT: PSpice
.MODEL njw21193g pnp
+IS=6.76984e-11 BF=83.2918 NF=0.911636 VAF=16.0266
+IKF=3.99366 ISE=1.78864e-11 NE=1.46619 BR=0.1
+NR=1.5 VAR=2.55558 IKR=10 ISC=3.90093e-13
+NC=3.98987 RB=1.07223 IRB=0.1 RBM=1.07223
+RE=0.0001 RC=0.102622 XTB=0.452183 XTI=1
+EG=1.05 CJE=1.00619e-08 VJE=0.99 MJE=0.44463
+TF=6.67045e-09 XTF=3.371 VTF=60 ITF=0.001
+CJC=5e-10 VJC=0.95 MJC=0.249866 XCJC=0.1
+FC=0.1 CJS=0 VJS=0.75 MJS=0.5
+TR=1e-07 PTF=0 KF=0 AF=1

* Model generated on Sep 12, 03
* MODEL FORMAT: PSpice
.MODEL mj21196 npn
+IS=1.16163e-09 BF=70955.3 NF=1.16275 VAF=1000
+IKF=0.0107673 ISE=4.79716e-07 NE=2.88626 BR=5.54586
+NR=1.5568 VAR=2.80079 IKR=1e-05 ISC=1e-16
+NC=3.99999 RB=1.84276 IRB=0.1 RBM=0.1
+RE=0.00993192 RC=0.0496596 XTB=0.1 XTI=1
+EG=1.05 CJE=6.67525e-09 VJE=0.718219 MJE=0.345477
+TF=1.68941e-08 XTF=1000 VTF=1.10595 ITF=3531.48
+CJC=5e-10 VJC=0.449501 MJC=0.317694 XCJC=0.100047
+FC=0.979504 CJS=0 VJS=0.75 MJS=0.5
+TR=1e-07 PTF=0 KF=0 AF=1

* Model generated on Aug 12, 03
* MODEL FORMAT: PSpice
.MODEL mjl4281a npn
+IS=9.94641e-11 BF=191.836 NF=1.11524 VAF=24.7449
+IKF=5.75399 ISE=6.4507e-12 NE=3.39407 BR=4.35182
+NR=1.1764 VAR=4.25175 IKR=6.61715 ISC=3.89999e-13
+NC=3.99 RB=4.37715 IRB=0.00966879 RBM=1e-15
+RE=0.00608852 RC=0.0434329 XTB=0.661303 XTI=1.00355
+EG=1.05 CJE=9.04931e-09 VJE=0.99 MJE=0.844324
+TF=1.6665e-09 XTF=1000 VTF=17023.9 ITF=152.472
+CJC=8.80163e-10 VJC=0.942802 MJC=0.23183 XCJC=1
+FC=0.8 CJS=0 VJS=0.75 MJS=0.5
+TR=1e-07 PTF=0 KF=0 AF=1

* Model generated on Feb  6, 08
* MODEL FORMAT: PSpice
.MODEL njw3281g npn
+IS=4.81888e-11 BF=119.415 NF=1.06881 VAF=21.6596
+IKF=10 ISE=1e-16 NE=1 BR=10.3886
+NR=1.06797 VAR=216.596 IKR=3.27392 ISC=1e-16
+NC=2.90616 RB=4.74135 IRB=0.1 RBM=1.57648
+RE=0.0001 RC=0.0383617 XTB=0.1 XTI=1
+EG=1.206 CJE=9.32161e-09 VJE=0.523647 MJE=0.322215
+TF=1.817e-09 XTF=1000 VTF=15.2293 ITF=121.9
+CJC=5e-10 VJC=0.8 MJC=0.23 XCJC=0.1
+FC=0.8 CJS=0 VJS=0.75 MJS=0.5
+TR=1e-07 PTF=0 KF=0 AF=1

.MODEL mjl21195 pnp
+IS=6.37655e-11 BF=90.2752 NF=1.18734 VAF=1000
+IKF=7.83841 ISE=9.34273e-13 NE=1.83109 BR=1.25494
+NR=1.28898 VAR=421.175 IKR=2.13448 ISC=9.34142e-13
+NC=3.03125 RB=8.06406 IRB=0.11862 RBM=1.99921
+RE=0.000831111 RC=0.0813241 XTB=1.34369 XTI=1.05543
+EG=1.05487 CJE=1.11548e-08 VJE=0.665374 MJE=0.425135
+TF=1e-08 XTF=2.24249 VTF=78.5103 ITF=2.77166
+CJC=5e-10 VJC=0.95 MJC=0.23 XCJC=0.614127
+FC=0.986555 CJS=0 VJS=0.75 MJS=0.5
+TR=1e-07 PTF=0 KF=0 AF=1
* Model generated on Jan 25, 2004
* Model format: PSpice

* Model generated on May  9, 05
* MODEL FORMAT: PSpice
.MODEL mjl0302a pnp
+IS=1.68444e-12 BF=84.9671 NF=0.992223 VAF=10.01
+IKF=7.49667 ISE=1e-08 NE=2.87955 BR=8.49671
+NR=0.990995 VAR=99.9986 IKR=0.382704 ISC=3.81183e-16
+NC=1 RB=4.23352 IRB=0.1 RBM=4.23351
+RE=0.00779693 RC=0.0390712 XTB=1.60824 XTI=3.9999
+EG=1.20458 CJE=1.56322e-08 VJE=0.99 MJE=0.23
+TF=1.97297e-09 XTF=1000 VTF=817.29 ITF=453.232
+CJC=5e-10 VJC=0.95 MJC=0.23 XCJC=0.756601
+FC=0.8 CJS=0 VJS=0.75 MJS=0.5
+TR=1e-07 PTF=0 KF=0 AF=1

* Model generated on Feb  7, 08
* MODEL FORMAT: PSpice
.MODEL njw0281g npn
+IS=4.36849e-12 BF=98.1488 NF=1.01332 VAF=37.9046
+IKF=9.71849 ISE=1e-16 NE=1.8326 BR=0.79921
+NR=1.09994 VAR=339.743 IKR=5.77305 ISC=1e-16
+NC=2.71592 RB=2.74892 IRB=0.33289 RBM=2.74892
+RE=0.000344671 RC=0.03203 XTB=1.7742 XTI=1.12262
+EG=1.20598 CJE=3.66793e-09 VJE=0.74806 MJE=0.85
+TF=2.27115e-09 XTF=1000 VTF=912.955 ITF=296.602
+CJC=5e-10 VJC=0.95 MJC=0.270858 XCJC=0.98254
+FC=0.8 CJS=0 VJS=0.75 MJS=0.5
+TR=1e-07 PTF=0 KF=0 AF=1

* Model generated on May  9, 05
* MODEL FORMAT: PSpice
.MODEL mjl0281a npn
+IS=7.35019e-14 BF=113.063 NF=1.21951 VAF=10.158
+IKF=8.51404 ISE=8.83106e-12 NE=2.0497 BR=4.9071
+NR=1.25326 VAR=8.60208 IKR=6.78731 ISC=3.59743e-13
+NC=3.99215 RB=0.526348 IRB=0.1 RBM=0.526348
+RE=0.000612798 RC=0.0302655 XTB=0.1 XTI=1
+EG=1.05 CJE=5.60463e-09 VJE=0.600913 MJE=0.848202
+TF=2.07647e-09 XTF=1000 VTF=4157.4 ITF=217.206
+CJC=4.77948e-10 VJC=0.528497 MJC=0.23 XCJC=1
+FC=0.430232 CJS=0 VJS=0.75 MJS=0.5
+TR=1e-07 PTF=0 KF=0 AF=1

* Model generated on May  3, 07
* MODEL FORMAT: PSpice
.MODEL njl3281d npn
+IS=4.06068e-12 BF=108.067 NF=1.01389 VAF=33.707
+IKF=9.7899 ISE=4.00073e-12 NE=3.49994 BR=2.92796
+NR=1.0727 VAR=5.37566 IKR=9.53639 ISC=5.5e-13
+NC=3.9375 RB=5.68023 IRB=0.1 RBM=0.253
+RE=0.000516188 RC=0.0540679 XTB=0.837253 XTI=1.03611
+EG=1.05 CJE=1.11456e-08 VJE=0.769163 MJE=0.420032
+TF=2.04968e-09 XTF=1000 VTF=3.97956 ITF=173.585
+CJC=1e-09 VJC=0.765901 MJC=0.480482 XCJC=1
+FC=0.8 CJS=0 VJS=0.75 MJS=0.5
+TR=1e-07 PTF=0 KF=0 AF=1

* Model generated on Aug 12, 03
* MODEL FORMAT: PSpice
.MODEL mjl4302a pnp
+IS=8.52181e-11 BF=505.26 NF=1.14612 VAF=15.6851
+IKF=2.86699 ISE=3.82966e-09 NE=2.09196 BR=50.526
+NR=1.18655 VAR=1.41005 IKR=9.95655 ISC=4.51392e-11
+NC=1.28018 RB=98.7069 IRB=4.30971e-06 RBM=0.110355
+RE=0.00577433 RC=0.0288716 XTB=0.00344757 XTI=0.00948369
+EG=1.05 CJE=1.42406e-08 VJE=0.99 MJE=0.23
+TF=2.22092e-09 XTF=15.6824 VTF=100000 ITF=63.5289
+CJC=5.00002e-10 VJC=0.893622 MJC=2.3e-21 XCJC=1
+FC=0.1 CJS=0 VJS=0.75 MJS=0.5
+TR=1e-07 PTF=0 KF=0 AF=1

* Model generated on May  7, 05
* MODEL FORMAT: PSpice
.MODEL mjw0302a pnp
+IS=1.68444e-12 BF=84.9671 NF=0.992223 VAF=10.01
+IKF=7.49667 ISE=1e-08 NE=2.87955 BR=8.49671
+NR=0.990995 VAR=99.9986 IKR=0.382704 ISC=3.81183e-16
+NC=1 RB=4.23352 IRB=0.1 RBM=4.23351
+RE=0.00779693 RC=0.0390712 XTB=1.60824 XTI=3.9999
+EG=1.20458 CJE=1.56322e-08 VJE=0.99 MJE=0.23
+TF=1.97297e-09 XTF=1000 VTF=817.29 ITF=453.232
+CJC=5e-10 VJC=0.95 MJC=0.23 XCJC=0.756601
+FC=0.8 CJS=0 VJS=0.75 MJS=0.5
+TR=1e-07 PTF=0 KF=0 AF=1

.MODEL mjl21196 npn
+IS=9.91162e-11 BF=72.017 NF=1.14361 VAF=25.2734
+IKF=9.99333 ISE=7.00002e-12 NE=3.375 BR=4.98511
+NR=1.21116 VAR=6.29246 IKR=4.50711 ISC=3.25e-13
+NC=4 RB=9.33972 IRB=0.1 RBM=0.1
+RE=0.000642966 RC=0.0378089 XTB=0.1047 XTI=1.03131
+EG=1.11401 CJE=1.38873e-08 VJE=0.4 MJE=0.436413
+TF=1e-08 XTF=50.3784 VTF=3.13272 ITF=2.83908
+CJC=5e-10 VJC=0.95 MJC=0.23891 XCJC=0.800721
+FC=0.8 CJS=0 VJS=0.75 MJS=0.5
+TR=1e-07 PTF=0 KF=0 AF=1
* Model generated on Jan 25, 2004
* Model format: PSpice

* Model generated on Feb  7, 08
* MODEL FORMAT: PSpice
.MODEL njw0302g pnp
+IS=5.16751e-16 BF=114.657 NF=0.895716 VAF=50.2189
+IKF=6.409 ISE=3.9641e-15 NE=4 BR=1.47167
+NR=0.923324 VAR=255.567 IKR=6.34299 ISC=3.96408e-15
+NC=2.82194 RB=2.66347 IRB=0.1 RBM=2.0828
+RE=0.0001 RC=0.0652395 XTB=1.45322 XTI=1.08126
+EG=1.05 CJE=2.14504e-09 VJE=0.4 MJE=0.376227
+TF=2.16864e-09 XTF=1000 VTF=843.737 ITF=501.348
+CJC=5e-10 VJC=0.95 MJC=0.251547 XCJC=1
+FC=0.8 CJS=0 VJS=0.75 MJS=0.5
+TR=1e-07 PTF=0 KF=0 AF=1

* Model generated on May  7, 05
* MODEL FORMAT: PSpice
.MODEL mjw0281a npn
+IS=7.35019e-14 BF=113.063 NF=1.21951 VAF=10.158
+IKF=8.51404 ISE=8.83106e-12 NE=2.0497 BR=4.9071
+NR=1.25326 VAR=8.60208 IKR=6.78731 ISC=3.59743e-13
+NC=3.99215 RB=0.526348 IRB=0.1 RBM=0.526348
+RE=0.000612798 RC=0.0302655 XTB=0.1 XTI=1
+EG=1.05 CJE=5.60463e-09 VJE=0.600913 MJE=0.848202
+TF=2.07647e-09 XTF=1000 VTF=4157.4 ITF=217.206
+CJC=4.77948e-10 VJC=0.528497 MJC=0.23 XCJC=1
+FC=0.430232 CJS=0 VJS=0.75 MJS=0.5
+TR=1e-07 PTF=0 KF=0 AF=1

* Model generated on Aug 12, 03
* MODEL FORMAT: PSpice
.MODEL mjl4302a pnp
+IS=8.52181e-11 BF=505.26 NF=1.14612 VAF=15.6851
+IKF=2.86699 ISE=3.82966e-09 NE=2.09196 BR=50.526
+NR=1.18655 VAR=1.41005 IKR=9.95655 ISC=4.51392e-11
+NC=1.28018 RB=98.7069 IRB=4.30971e-06 RBM=0.110355
+RE=0.00577433 RC=0.0288716 XTB=0.00344757 XTI=0.00948369
+EG=1.05 CJE=1.42406e-08 VJE=0.99 MJE=0.23
+TF=2.22092e-09 XTF=15.6824 VTF=100000 ITF=63.5289
+CJC=5.00002e-10 VJC=0.893622 MJC=2.3e-21 XCJC=1
+FC=0.1 CJS=0 VJS=0.75 MJS=0.5
+TR=1e-07 PTF=0 KF=0 AF=1

.MODEL mjf15030 npn
+IS=8.52586e-11 BF=111.756 NF=1.12559 VAF=24.6951
+IKF=9.20535 ISE=5.49997e-12 NE=3.4375 BR=3.01415
+NR=1.24186 VAR=3.47825 IKR=6.10635 ISC=6.25e-13
+NC=3.90625 RB=8.46485 IRB=0.1 RBM=0.1
+RE=0.00048424 RC=0.142581 XTB=0.120563 XTI=1
+EG=1.10791 CJE=3.00414e-09 VJE=0.411662 MJE=0.51835
+TF=1.87342e-09 XTF=1000 VTF=2395.66 ITF=178.85
+CJC=2.59252e-10 VJC=0.4 MJC=0.383014 XCJC=0.785372
+FC=0.1 CJS=0 VJS=0.75 MJS=0.5
+TR=8.8568e-07 PTF=0 KF=0 AF=1
* Model generated on Feb  1, 2004
* Model format: PSpice

.MODEL mjf15031 pnp
+IS=8.44385e-11 BF=118.835 NF=1.22766 VAF=24.5822
+IKF=9.15247 ISE=5.49989e-12 NE=3.43751 BR=2.98261
+NR=1.41393 VAR=3.42026 IKR=6.68823 ISC=6.25e-13
+NC=3.90625 RB=8.19612 IRB=0.1 RBM=0.1
+RE=0.000474198 RC=0.125756 XTB=0.120732 XTI=1
+EG=1.10974 CJE=1.55377e-09 VJE=0.99 MJE=0.547635
+TF=6.50306e-10 XTF=30.1354 VTF=2.33133 ITF=0.0183389
+CJC=5e-10 VJC=0.4 MJC=0.411581 XCJC=0.793472
+FC=0.1 CJS=0 VJS=0.75 MJS=0.5
+TR=7.75795e-07 PTF=0 KF=0 AF=1
* Model generated on Feb  1, 2004
* Model format: PSpice

* Model generated on Sep  5, 03
* MODEL FORMAT: PSpice
.MODEL mj21193 pnp
+IS=2.11472e-10 BF=286.381 NF=1.1016 VAF=1000
+IKF=3.10565 ISE=1.63547e-08 NE=2.06994 BR=0.00431616
+NR=1.78217 VAR=1.71712 IKR=10 ISC=2.56806e-13
+NC=3.96746 RB=2.81058 IRB=1e-12 RBM=1.04377
+RE=0.00951621 RC=0.047581 XTB=0.1 XTI=0.01
+EG=1.05 CJE=6.08799e-08 VJE=0.99 MJE=0.391391
+TF=1.90715e-08 XTF=1.24582 VTF=12.9644 ITF=4.57909
+CJC=2.19003e-09 VJC=0.0988421 MJC=0.34222 XCJC=0.744224
+FC=1e-21 CJS=0 VJS=0.75 MJS=0.5
+TR=1e-07 PTF=0 KF=0 AF=1

* Model generated on Oct 30, 03
* MODEL FORMAT: PSpice
.MODEL mje15035 pnp
+IS=5.81508e-15 BF=313.373 NF=0.85 VAF=40.5017
+IKF=0.897023 ISE=6.74258e-16 NE=1.04249 BR=0.958017
+NR=0.894461 VAR=148.639 IKR=7.05393 ISC=6.74258e-16
+NC=2.84461 RB=3.62039 IRB=0.1 RBM=0.1
+RE=0.000923293 RC=0.233799 XTB=2.92628 XTI=1.01325
+EG=1.17461 CJE=1.5597e-09 VJE=0.99 MJE=0.554057
+TF=1.35882e-09 XTF=1000 VTF=467.207 ITF=58.3338
+CJC=1.58888e-10 VJC=0.4 MJC=0.23 XCJC=0.786287
+FC=0.8 CJS=0 VJS=0.75 MJS=0.5
+TR=1e-07 PTF=0 KF=0 AF=1

* Model generated on Sep 11, 03
* MODEL FORMAT: PSpice
.MODEL mj21195 pnp
+IS=1.07772e-10 BF=221.467 NF=1.13339 VAF=1000
+IKF=4.43562 ISE=3.64015e-10 NE=1.71124 BR=0.100011
+NR=1.48497 VAR=2.1141 IKR=44.3562 ISC=3.14649e-13
+NC=3.17097 RB=3.18766 IRB=0.167048 RBM=0.1
+RE=0.0159182 RC=0.0795912 XTB=0.1 XTI=1
+EG=1.05 CJE=8.75501e-09 VJE=0.99 MJE=0.417932
+TF=1e-08 XTF=164.367 VTF=0.678119 ITF=0.00142259
+CJC=1.07016e-09 VJC=0.967664 MJC=0.437073 XCJC=1
+FC=0.8 CJS=0 VJS=0.75 MJS=0.5
+TR=1e-07 PTF=0 KF=0 AF=1

* Model generated on Oct 30, 03
* MODEL FORMAT: PSpice
.MODEL mje15034 npn
+IS=3.92866e-12 BF=260.938 NF=1.02215 VAF=15.3399
+IKF=0.160087 ISE=1e-08 NE=2.54491 BR=26.0938
+NR=1.10885 VAR=153.399 IKR=1.60087 ISC=1e-08
+NC=1.89024 RB=0.41209 IRB=0.1 RBM=0.41209
+RE=0.0001 RC=0.208002 XTB=0.897431 XTI=1.39234
+EG=1.206 CJE=1.61534e-09 VJE=0.698417 MJE=0.382854
+TF=1.03079e-09 XTF=1000 VTF=100000 ITF=42.9041
+CJC=1.04458e-10 VJC=0.441587 MJC=0.23 XCJC=1
+FC=0.8 CJS=0 VJS=0.75 MJS=0.5
+TR=1e-07 PTF=0 KF=0 AF=1

* Model generated on Sep 10, 03
* MODEL FORMAT: PSpice
.MODEL mj21194 npn
+IS=4.02325e-14 BF=10000 NF=1.1488 VAF=10000
+IKF=0.377331 ISE=2.16244e-09 NE=2.49213 BR=0.1
+NR=1.5 VAR=1.70851 IKR=3.77331 ISC=1.00031e-16
+NC=3.99945 RB=0.1 IRB=0.1 RBM=0.1
+RE=0.00775691 RC=0.0387846 XTB=0.1 XTI=1
+EG=1.05 CJE=1.07724e-08 VJE=0.975489 MJE=0.524369
+TF=1e-08 XTF=2.16157e+06 VTF=0.184568 ITF=5.56361
+CJC=2.68609e-10 VJC=1.64862 MJC=0.242322 XCJC=0.1
+FC=0.910137 CJS=0 VJS=0.75 MJS=0.5
+TR=1e-07 PTF=0 KF=0 AF=1


*** RF Transistors

* Model generated on Jul  3, 02
* MODEL FORMAT: PSpice
.MODEL mmbt2369alt1 npn
+IS=1.43984e-13 BF=526.086 NF=1.21978 VAF=3.62518
+IKF=0.00878191 ISE=1e-08 NE=3.71149 BR=2.58372
+NR=1.22662 VAR=7.2229 IKR=0.0878191 ISC=1e-08
+NC=2.29158 RB=1e-08 IRB=0.13867 RBM=1e-09
+RE=0.0001 RC=1.22519 XTB=1e-12 XTI=1e-12
+EG=1.05 CJE=3.2936e-12 VJE=0.329753 MJE=0.23
+TF=4e-10 XTF=1.5 VTF=1 ITF=1
+CJC=3.07126e-12 VJC=0.120633 MJC=0.0566184 XCJC=0.8
+FC=0.533333 CJS=0 VJS=0.75 MJS=0.5
+TR=6.09825e-09 PTF=0 KF=0 AF=1

* Model generated on Sep 26, 03
* MODEL FORMAT: PSpice
.MODEL nsf2250wt1 npn
+IS=4.01844e-16 BF=300.352 NF=0.919176 VAF=1000
+IKF=0.0715213 ISE=1.64917e-10 NE=3.65708 BR=6.92239
+NR=0.904339 VAR=2.45616 IKR=0.715213 ISC=1e-16
+NC=4 RB=1000 IRB=100 RBM=0.711072
+RE=0.288938 RC=1.44469 XTB=0.571921 XTI=40
+EG=1.05 CJE=9.19185e-13 VJE=0.854523 MJE=0.85
+TF=2.50954e-11 XTF=1000 VTF=1303.15 ITF=1.96943
+CJC=1.43298e-12 VJC=0.95 MJC=0.23 XCJC=0.1
+FC=0.8 CJS=0 VJS=0.75 MJS=0.5
+TR=1e-07 PTF=0 KF=0 AF=1


*** General Transistors

.MODEL tip31 npn
+IS=1e-09 BF=3656.16 NF=1.23899 VAF=10
+IKF=0.0333653 ISE=1e-08 NE=2.29374 BR=0.1
+NR=1.5 VAR=100 IKR=0.333653 ISC=1e-08
+NC=1.75728 RB=6.15083 IRB=100 RBM=0.00113049
+RE=0.0001 RC=0.0491489 XTB=50 XTI=1
+EG=1.05 CJE=3.26475e-10 VJE=0.446174 MJE=0.464221
+TF=2.06218e-09 XTF=15.0842 VTF=25.7317 ITF=0.001
+CJC=3.07593e-10 VJC=0.775484 MJC=0.476498 XCJC=0.750493
+FC=0.796407 CJS=0 VJS=0.75 MJS=0.5
+TR=9.57121e-06 PTF=0 KF=0 AF=1
* Model generated on Feb  8, 2004
* Model format: PSpice

.MODEL tip31a npn
+IS=1e-09 BF=3656.16 NF=1.23899 VAF=10
+IKF=0.0333653 ISE=1e-08 NE=2.29374 BR=0.1
+NR=1.5 VAR=100 IKR=0.333653 ISC=1e-08
+NC=1.75728 RB=6.15083 IRB=100 RBM=0.00113049
+RE=0.0001 RC=0.0491489 XTB=50 XTI=1
+EG=1.05 CJE=3.26475e-10 VJE=0.446174 MJE=0.464221
+TF=2.06218e-09 XTF=15.0842 VTF=25.7317 ITF=0.001
+CJC=3.07593e-10 VJC=0.775484 MJC=0.476498 XCJC=0.750493
+FC=0.796407 CJS=0 VJS=0.75 MJS=0.5
+TR=9.57121e-06 PTF=0 KF=0 AF=1
* Model generated on Feb  8, 2004
* Model format: PSpice

.MODEL tip32 pnp
+IS=1e-09 BF=134.366 NF=1.29961 VAF=10
+IKF=0.742988 ISE=1e-16 NE=1.40014 BR=0.1
+NR=1.46599 VAR=100 IKR=3.21978 ISC=1e-16
+NC=2.71657 RB=7.44433 IRB=2.41268 RBM=0.218936
+RE=0.0152284 RC=0.0761421 XTB=0.1 XTI=1
+EG=1.05 CJE=3.26474e-10 VJE=0.446178 MJE=0.464223
+TF=1e-08 XTF=3.50642 VTF=8.2848 ITF=0.0305862
+CJC=3.07595e-10 VJC=0.77548 MJC=0.476497 XCJC=0.799334
+FC=0.8 CJS=0 VJS=0.75 MJS=0.5
+TR=9.57121e-06 PTF=0 KF=0 AF=1
* Model generated on Feb  8, 2004
* Model format: PSpice

.MODEL tip32a pnp
+IS=1e-09 BF=134.366 NF=1.29961 VAF=10
+IKF=0.742988 ISE=1e-16 NE=1.40014 BR=0.1
+NR=1.46599 VAR=100 IKR=3.21978 ISC=1e-16
+NC=2.71657 RB=7.44433 IRB=2.41268 RBM=0.218936
+RE=0.0152284 RC=0.0761421 XTB=0.1 XTI=1
+EG=1.05 CJE=3.26474e-10 VJE=0.446178 MJE=0.464223
+TF=1e-08 XTF=3.50642 VTF=8.2848 ITF=0.0305862
+CJC=3.07595e-10 VJC=0.77548 MJC=0.476497 XCJC=0.799334
+FC=0.8 CJS=0 VJS=0.75 MJS=0.5
+TR=9.57121e-06 PTF=0 KF=0 AF=1
* Model generated on Feb  8, 2004
* Model format: PSpice

* Model generated on Apr  9, 05
* MODEL FORMAT: PSpice
.MODEL mmbta06wt1 npn
+IS=6.03149e-15 BF=559.138 NF=0.841146 VAF=996.086
+IKF=0.187838 ISE=1e-08 NE=3.53096 BR=43.984
+NR=0.893292 VAR=1.45264 IKR=1e-05 ISC=3.06474e-11
+NC=3.98114 RB=0.01 IRB=0.269152 RBM=0.01
+RE=1e-05 RC=0.000928752 XTB=1.17305 XTI=1
+EG=1.05 CJE=5.54912e-11 VJE=0.577764 MJE=0.313139
+TF=5.4629e-10 XTF=23.7458 VTF=7.07849 ITF=4.69733
+CJC=1.76218e-11 VJC=0.4 MJC=0.285166 XCJC=0.902334
+FC=0.732277 CJS=0 VJS=0.75 MJS=0.5
+TR=1e-07 PTF=0 KF=0 AF=1

* Model generated on Dec 14, 01
* MODEL FORMAT: PSpice
.MODEL mmbta06lt1 npn
+IS=6.03149e-15 BF=559.138 NF=0.841146 VAF=996.086
+IKF=0.187838 ISE=1e-08 NE=3.53096 BR=43.984
+NR=0.893292 VAR=1.45264 IKR=1e-05 ISC=3.06474e-11
+NC=3.98114 RB=0.01 IRB=0.269152 RBM=0.01
+RE=1e-05 RC=0.000928752 XTB=1.17305 XTI=1
+EG=1.05 CJE=5.54912e-11 VJE=0.577764 MJE=0.313139
+TF=5.4629e-10 XTF=23.7458 VTF=7.07849 ITF=4.69733
+CJC=1.76218e-11 VJC=0.4 MJC=0.285166 XCJC=0.902334
+FC=0.732277 CJS=0 VJS=0.75 MJS=0.5
+TR=1e-07 PTF=0 KF=0 AF=1

.MODEL bd238 pnp
+IS=6.82166e-13 BF=112.18 NF=0.852203 VAF=88.5742
+IKF=0.971633 ISE=6.55349e-12 NE=3.38335 BR=4.87698
+NR=0.829022 VAR=4.07273 IKR=6.06127 ISC=3.89994e-13
+NC=3.99 RB=9.80893 IRB=0.1 RBM=0.1
+RE=0.000963169 RC=0.239477 XTB=0.100036 XTI=1.0218
+EG=1.206 CJE=6.4357e-08 VJE=0.569245 MJE=0.494207
+TF=1e-08 XTF=1.35725 VTF=0.99604 ITF=0.999923
+CJC=4.44225e-10 VJC=0.400202 MJC=0.41017 XCJC=0.803125
+FC=0.59817 CJS=0 VJS=0.75 MJS=0.5
+TR=1e-07 PTF=0 KF=0 AF=1
* Model generated on Feb 22, 2004
* Model format: PSpice

.MODEL bd436t pnp
+IS=1.73932e-10 BF=190.18 NF=1.2815 VAF=19.7171
+IKF=6.43739 ISE=4.74821e-12 NE=3.46893 BR=3.6873
+NR=1.07655 VAR=6.16595 IKR=5.52059 ISC=4.75e-13
+NC=3.96875 RB=8.77931 IRB=0.1 RBM=0.1
+RE=0.000793668 RC=0.224375 XTB=0.10148 XTI=1.02647
+EG=1.05 CJE=4.89943e-08 VJE=0.613216 MJE=0.424168
+TF=9.95869e-09 XTF=1.36393 VTF=0.997118 ITF=0.987141
+CJC=4.44409e-10 VJC=0.400104 MJC=0.410706 XCJC=0.803121
+FC=0.568195 CJS=0 VJS=0.75 MJS=0.5
+TR=1e-07 PTF=0 KF=0 AF=1
* Model generated on Feb 28, 2004
* Model format: PSpice

.MODEL bd437t npn
+IS=8.34782e-16 BF=165.443 NF=0.926448 VAF=10
+IKF=10 ISE=7.27965e-13 NE=3.8389 BR=5.48519
+NR=0.75 VAR=23.5414 IKR=3.31211 ISC=2.63503e-16
+NC=1.13181 RB=11.9793 IRB=0.1 RBM=0.174073
+RE=0.0001 RC=0.001 XTB=2.18586 XTI=4
+EG=1.206 CJE=7.57559e-09 VJE=0.4 MJE=0.717544
+TF=1e-08 XTF=1.778 VTF=1.0303 ITF=0.482967
+CJC=3.17585e-10 VJC=0.600305 MJC=0.409491 XCJC=0.799462
+FC=0.799978 CJS=0 VJS=0.75 MJS=0.5
+TR=1e-07 PTF=0 KF=0 AF=1
* Model generated on Feb 22, 2004
* Model format: PSpice

.MODEL bud42d-001 npn
+IS=3.49298e-11 BF=19.6305 NF=1.46166 VAF=10
+IKF=5.00366 ISE=7.75392e-12 NE=2.22512 BR=1.96305
+NR=1.5 VAR=5.28726 IKR=4.5355 ISC=4.75001e-13
+NC=2.85087 RB=0.1 IRB=0.1 RBM=0.1
+RE=0.000627834 RC=0.0742659 XTB=0.1 XTI=1
+EG=1.05 CJE=5.49988e-10 VJE=0.99 MJE=0.365972
+TF=4e-10 XTF=1.5 VTF=1 ITF=1
+CJC=1.01534e-10 VJC=0.95 MJC=0.394566 XCJC=0.8
+FC=0.533333 CJS=0 VJS=0.75 MJS=0.5
+TR=9.57121e-06 PTF=0 KF=0 AF=1
* Model generated on Dec 24, 2003
* Model format: PSpice

.MODEL bul146 npn
+IS=7.20092e-10 BF=19.7338 NF=0.862637 VAF=19.8699
+IKF=6.54333 ISE=6.38545e-12 NE=3.38829 BR=1.97338
+NR=0.872882 VAR=4.5847 IKR=8.68106 ISC=7.74768e-13
+NC=3.89256 RB=4.64526 IRB=0.0252041 RBM=0.084664
+RE=0.000394439 RC=0.0714783 XTB=0.136944 XTI=0.100022
+EG=1.07928 CJE=2.95879e-09 VJE=0.647588 MJE=0.314604
+TF=4e-10 XTF=1.5 VTF=1 ITF=1
+CJC=2.56269e-10 VJC=0.95 MJC=0.486303 XCJC=0.8
+FC=0.533333 CJS=0 VJS=0.75 MJS=0.5
+TR=1.23133e-07 PTF=0 KF=0 AF=1
* Model generated on Dec 25, 2003
* Model format: PSpice

.MODEL bul146f npn
+IS=7.20092e-10 BF=19.7338 NF=0.862637 VAF=19.8699
+IKF=6.54333 ISE=6.38545e-12 NE=3.38829 BR=1.97338
+NR=0.872882 VAR=4.5847 IKR=8.68106 ISC=7.74768e-13
+NC=3.89256 RB=4.64526 IRB=0.0252041 RBM=0.084664
+RE=0.000394439 RC=0.0714783 XTB=0.136944 XTI=0.100022
+EG=1.07928 CJE=2.95879e-09 VJE=0.647588 MJE=0.314604
+TF=4e-10 XTF=1.5 VTF=1 ITF=1
+CJC=2.56269e-10 VJC=0.95 MJC=0.486303 XCJC=0.8
+FC=0.533333 CJS=0 VJS=0.75 MJS=0.5
+TR=1.23133e-07 PTF=0 KF=0 AF=1
* Model generated on Dec 25, 2003
* Model format: PSpice

* Model generated on Aug 29, 01
* MODEL FORMAT: PSpice
.MODEL bc817-25lt1 npn
+IS=4.47965e-13 BF=518.948 NF=1.12669 VAF=2.68928
+IKF=0.213302 ISE=2.47184e-11 NE=1.85661 BR=0.1
+NR=1.5 VAR=6.99784 IKR=2.13302 ISC=2.47184e-11
+NC=1.53888 RB=6.92597 IRB=0.0020825 RBM=0.001
+RE=0.0447208 RC=0.223604 XTB=0.1 XTI=1.1167
+EG=1.206 CJE=3.33278e-11 VJE=0.99 MJE=0.382098
+TF=1.35311e-12 XTF=975.272 VTF=2752.71 ITF=0.001
+CJC=1.13086e-11 VJC=0.4 MJC=0.264687 XCJC=0.929063
+FC=0.1 CJS=0 VJS=0.75 MJS=0.5
+TR=1e-07 PTF=0 KF=0 AF=1

* MODEL FORMAT: PSpice
.MODEL bcp56-10t1 npn
+IS=3.85569e-12 BF=1255.96 NF=1.18976 VAF=499.759
+IKF=0.0472315 ISE=2.364e-10 NE=2.34902 BR=100
+NR=1.5 VAR=3.63492 IKR=0.472315 ISC=2.364e-10
+NC=1.66742 RB=0.1 IRB=0.100018 RBM=0.1
+RE=0.0001 RC=0.176769 XTB=0.201515 XTI=1
+EG=1.206 CJE=5.67926e-11 VJE=0.602906 MJE=0.358118
+TF=2.52023e-10 XTF=1000 VTF=68123.4 ITF=17.6824
+CJC=1.71457e-11 VJC=0.4 MJC=0.286678 XCJC=0.925618
+FC=0.8 CJS=0 VJS=0.75 MJS=0.5
+TR=1e-07 PTF=0 KF=0 AF=1

* Model generated on Mar 27, 02
* MODEL FORMAT: PSpice
.MODEL mmbt2907alt1 pnp
+IS=9.07168e-14 BF=244.282 NF=1.0581 VAF=10