*** On Semi Drivers

.SUBCKT nud3124lt1 1 2 3
*******************************************
*  Model Generated by ON Discrete CZ Lab  *
*     Copyright(c) ON Semiconductor       *
*          All Rights Reserved            *
*      UNPUBLISHED LICENSED SOFTWARE      *
*     Contains Proprietary Information    *
*                                         *
*   Commercial Use or Resale Restricted   *
*******************************************
* Model generated on Aug 6, 2003
* MODEL FORMAT: PSpice
* External Node Designations
* Node 1 -> Drain
* Node 2 -> Gate
* Node 3 -> Source
*
X1 1  5  3 nud3124lt1_mosfet
D1 4  1    nud3124lt1_zener_33
D2 4  5    nud3124lt1_zener_33
D3 6  5    nud3124lt1_zener_13
D4 6  3    nud3124lt1_zener_13
D5 7  2    nud3124lt1_zener_13
D6 7  3    nud3124lt1_zener_13
RG  2  5   10k
RGS 2  3   106610 TC=-0.002897, 9.709e-6
.MODEL NUD3124LT1_ZENER_33 D
+ BV=31.582
+ IBV=0.01
+ TBV1=-6.329E-5
+ TBV2=-3.590E-07
*
.MODEL NUD3124LT1_ZENER_13 D
+ BV=12.282
+ IBV=0.01
+ TBV1=-6.329E-5
+ TBV2=-3.590E-07
.ENDS nud3124lt1
*
.SUBCKT nud3124lt1_mosfet 1 2 3
**************************************
*      Model Generated by MODPEX     *
*Copyright(c) Symmetry Design Systems*
*         All Rights Reserved        *
*    UNPUBLISHED LICENSED SOFTWARE   *
*   Contains Proprietary Information *
*      Which is The Property of      *
*     SYMMETRY OR ITS LICENSORS      *
*Commercial Use or Resale Restricted *
*   by Symmetry License Agreement    *
**************************************
* Model generated on Aug  4, 03
* MODEL FORMAT: PSpice
* Symmetry POWER MOS Model (Version 1.0)
* External Node Designations
* Node 1 -> Drain
* Node 2 -> Gate
* Node 3 -> Source
M1 9 7 8 8 MM L=100u W=100u
* Default values used in MM:
* The voltage-dependent capacitances are
* not included. Other default values are:
*   RS=0 RD=0 LD=0 CBD=0 CBS=0 CGBO=0
.MODEL MM NMOS LEVEL=1 IS=1e-32
+VTO=2.03228 LAMBDA=0 KP=1.3215
+CGSO=1.75e-07 CGDO=4.50101e-08
RS 8 3 0.176131
D1 3 1 MD
.MODEL MD D IS=2.49128e-09 RS=0.00740651 N=1.5 BV=50
+IBV=0.00025 EG=1.2 XTI=3.21767 TT=2e-05
+CJO=3.3269e-11 VJ=3.01827 M=0.512165 FC=0.1
RDS 3 1 5.6e+06
RD 9 1 0.129705
RG 2 7 2.18034
D2 4 5 MD1
* Default values used in MD1:
*   RS=0 EG=1.11 XTI=3.0 TT=0
*   BV=infinite IBV=1mA
.MODEL MD1 D IS=1e-32 N=50
+CJO=3.6088e-11 VJ=0.838392 M=0.824702 FC=1e-08
D3 0 5 MD2
* Default values used in MD2:
*   EG=1.11 XTI=3.0 TT=0 CJO=0
*   BV=infinite IBV=1mA
.MODEL MD2 D IS=1e-10 N=0.4 RS=3e-06
RL 5 10 1
FI2 7 9 VFI2 -1
VFI2 4 0 0
EV16 10 0 9 7 1
CAP 11 10 3.6088e-11
FI1 7 9 VFI1 -1
VFI1 11 6 0
RCAP 6 10 1
D4 0 6 MD3
* Default values used in MD3:
*   EG=1.11 XTI=3.0 TT=0 CJO=0
*   RS=0 BV=infinite IBV=1mA
.MODEL MD3 D IS=1e-10 N=0.4
.ENDS nud3124lt1_mosfet
*

.SUBCKT nud3112dmt1 1 2 3 4 5 6
*******************************************
*  Model Generated by ON Discrete CZ Lab  *
*     Copyright(c) ON Semiconductor       *
*          All Rights Reserved            *
*      UNPUBLISHED LICENSED SOFTWARE      *
*     Contains Proprietary Information    *
*                                         *
*   Commercial Use or Resale Restricted   *
*******************************************
* Model generated on Sep 10, 2003
* MODEL FORMAT: PSpice
* External Node Designations
* pin1     pin2   pin3    pin4     pin5   pin6
* source1  gate1  drain2  source2  gate2  drain1
*
X1   6  8  1 nud3112lt1_mosfet
D1   7  6    nud3112lt1_zener_156r
D2   7  8    nud3112lt1_zener_156r
D3   9  8    nud3112lt1_zener_67r
D4   9  1    nud3112lt1_zener_67r
D5  10  2    nud3112lt1_zener_67r
D6  10  1    nud3112lt1_zener_67r
RG1  2  5    1k
RGS1 2  3    200k TC=-6.0710E-03, 3.1612E-05
*
X2   3 12  4 nud3112lt1_mosfet
D7  11  3    nud3112lt1_zener_156r
D8  11 12    nud3112lt1_zener_156r
D9  13 12    nud3112lt1_zener_67r
D10 13  4    nud3112lt1_zener_67r
D11 14  5    nud3112lt1_zener_67r
D12 14  4    nud3112lt1_zener_67r
RG2  2  5    1k
RGS2 2  3    200k TC=-6.0710E-03, 3.1612E-05
.MODEL NUD3112LT1_ZENER_156r D
+ BV=13.91
+ IBV=0.01
+ TBV1=1.05E-04
+ TBV2=1.3E-06
+ XTI=0
*
.MODEL NUD3112LT1_ZENER_67r D
+ BV=5.982
+ IBV=0.01
.ENDS nud3112dmt1
*
.SUBCKT nud3112lt1_mosfet 1 2 3
**************************************
*      Model Generated by MODPEX     *
*Copyright(c) Symmetry Design Systems*
*         All Rights Reserved        *
*    UNPUBLISHED LICENSED SOFTWARE   *
*   Contains Proprietary Information *
*      Which is The Property of      *
*     SYMMETRY OR ITS LICENSORS      *
*Commercial Use or Resale Restricted *
*   by Symmetry License Agreement    *
**************************************
* Model generated on Sep 12, 03
* MODEL FORMAT: PSpice
* Symmetry POWER MOS Model (Version 1.0)
* External Node Designations
* Node 1 -> Drain
* Node 2 -> Gate
* Node 3 -> Source
M1 9 7 8 8 MM L=100u W=100u
* Default values used in MM:
* The voltage-dependent capacitances are
* not included. Other default values are:
*   RS=0 RD=0 LD=0 CBD=0 CBS=0 CGBO=0
.MODEL MM NMOS LEVEL=1 IS=1e-32
+VTO=1.1879 LAMBDA=0 KP=1.32307
+CGSO=1.6e-07 CGDO=4.13285e-08
RS 8 3 0.302454
D1 3 1 MD
.MODEL MD D IS=5.37756e-11 RS=0.0138577 N=1.5 BV=50
+IBV=0.01 EG=1.2 XTI=3.00246 TT=2e-05
+CJO=7.95219e-11 VJ=4.03802 M=0.899653 FC=0.1
RDS 3 1 2.8e+06
RD 9 1 0.0001
RG 2 7 1.75764
D2 4 5 MD1
* Default values used in MD1:
*   RS=0 EG=1.11 XTI=3.0 TT=0
*   BV=infinite IBV=1mA
.MODEL MD1 D IS=1e-32 N=50
+CJO=3.15443e-11 VJ=0.82382 M=0.873248 FC=1e-08
D3 0 5 MD2
* Default values used in MD2:
*   EG=1.11 XTI=3.0 TT=0 CJO=0
*   BV=infinite IBV=1mA
.MODEL MD2 D IS=1e-10 N=0.4 RS=3e-06
RL 5 10 1
FI2 7 9 VFI2 -1
VFI2 4 0 0
EV16 10 0 9 7 1
CAP 11 10 3.15443e-11
FI1 7 9 VFI1 -1
VFI1 11 6 0
RCAP 6 10 1
D4 0 6 MD3
* Default values used in MD3:
*   EG=1.11 XTI=3.0 TT=0 CJO=0
*   RS=0 BV=infinite IBV=1mA
.MODEL MD3 D IS=1e-10 N=0.4
.ENDS nud3112lt1_mosfet
*

.SUBCKT nud3124dmt1 1 2 3 4 5 6
*******************************************
*  Model Generated by ON Discrete CZ Lab  *
*     Copyright(c) ON Semiconductor       *
*          All Rights Reserved            *
*      UNPUBLISHED LICENSED SOFTWARE      *
*     Contains Proprietary Information    *
*                                         *
*   Commercial Use or Resale Restricted   *
*******************************************
* Model generated on Sep 10, 2003
* MODEL FORMAT: PSpice
* External Node Designations
* pin1     pin2   pin3    pin4     pin5   pin6
* source1  gate1  drain2  source2  gate2  drain1
*
X1   6  8  1 nud3124lt1_mosfet
D1   7  6    nud3124lt1_zener_33
D2   7  8    nud3124lt1_zener_33
D3   9  8    nud3124lt1_zener_13
D4   9  1    nud3124lt1_zener_13
D5  10  2    nud3124lt1_zener_13
D6  10  1    nud3124lt1_zener_13
RG1  2  8    10k
RGS1 2  1    106610 TC=-0.002897, 9.709e-6
*
X2   3 12  4 nud3124lt1_mosfet
D7  11  3    nud3124lt1_zener_33
D8  11 12    nud3124lt1_zener_33
D9  13 12    nud3124lt1_zener_13
D10 13  4    nud3124lt1_zener_13
D11 14  5    nud3124lt1_zener_13
D12 14  4    nud3124lt1_zener_13
RG2  5 12    10k
RGS2 5  4    106610 TC=-0.002897, 9.709e-6
.MODEL NUD3124LT1_ZENER_33 D
+ BV=31.582
+ IBV=0.01
+ TBV1=-6.329E-5
+ TBV2=-3.590E-07
*
.MODEL NUD3124LT1_ZENER_13 D
+ BV=12.282
+ IBV=0.01
+ TBV1=-6.329E-5
+ TBV2=-3.590E-07
.ENDS nud3124dmt1
*

.SUBCKT nud3105lt1 1 2 3
*******************************************
*  Model Generated by ON Discrete CZ Lab  *
*     Copyright(c) ON Semiconductor       *
*          All Rights Reserved            *
*      UNPUBLISHED LICENSED SOFTWARE      *
*     Contains Proprietary Information    *
*                                         *
*   Commercial Use or Resale Restricted   *
*******************************************
* Model generated on Sep 10, 2003
* MODEL FORMAT: PSpice
* External Node Designations
* Node 1 -> Drain
* Node 2 -> Gate
* Node 3 -> Source
*
X1 1  5  3 nud3105lt1_mosfet
D1 4  1    nud3105lt1_zener_80r
D2 4  5    nud3105lt1_zener_80r
D3 6  5    nud3105lt1_zener_67r
D4 6  3    nud3105lt1_zener_67r
D5 7  2    nud3105lt1_zener_67r
D6 7  3    nud3105lt1_zener_67r
RG  2  5   1k
RGS 2  3   275k TC=-6.8419E-03, 2.4207E-05
.MODEL NUD3105LT1_ZENER_80r D
+ BV=5.71
+ IBV=0.01
+ TBV1=2.7E-04
+ TBV2=9E-07
+ XTI = 0
*
.MODEL NUD3105LT1_ZENER_67r D
+ BV=5.982
+ IBV=0.01
.ENDS nud3105lt1
*
.SUBCKT nud3105lt1_mosfet 1 2 3
**************************************
*      Model Generated by MODPEX     *
*Copyright(c) Symmetry Design Systems*
*         All Rights Reserved        *
*    UNPUBLISHED LICENSED SOFTWARE   *
*   Contains Proprietary Information *
*      Which is The Property of      *
*     SYMMETRY OR ITS LICENSORS      *
*Commercial Use or Resale Restricted *
*   by Symmetry License Agreement    *
**************************************
* Model generated on Sep 12, 03
* MODEL FORMAT: PSpice
* Symmetry POWER MOS Model (Version 1.0)
* External Node Designations
* Node 1 -> Drain
* Node 2 -> Gate
* Node 3 -> Source
M1 9 7 8 8 MM L=100u W=100u
* Default values used in MM:
* The voltage-dependent capacitances are
* not included. Other default values are:
*   RS=0 RD=0 LD=0 CBD=0 CBS=0 CGBO=0
.MODEL MM NMOS LEVEL=1 IS=1e-32
+VTO=1.63839 LAMBDA=0 KP=1.5988
+CGSO=1.7e-07 CGDO=1.5958e-08
RS 8 3 0.0001
D1 3 1 MD
.MODEL MD D IS=5.20681e-11 RS=0.0120709 N=1.5 BV=50
+IBV=0.01 EG=1.1475 XTI=3.00097 TT=1.99548e-05
+CJO=5.35045e-11 VJ=2.99474 M=0.624144 FC=0.1
RDS 3 1 600000
RD 9 1 0.2485
RG 2 7 2.18034
D2 4 5 MD1
* Default values used in MD1:
*   RS=0 EG=1.11 XTI=3.0 TT=0
*   BV=infinite IBV=1mA
.MODEL MD1 D IS=1e-32 N=50
+CJO=2.88044e-11 VJ=0.534377 M=0.642721 FC=1e-08
D3 0 5 MD2
* Default values used in MD2:
*   EG=1.11 XTI=3.0 TT=0 CJO=0
*   BV=infinite IBV=1mA
.MODEL MD2 D IS=1e-10 N=0.4 RS=3e-06
RL 5 10 1
FI2 7 9 VFI2 -1
VFI2 4 0 0
EV16 10 0 9 7 1
CAP 11 10 2.88044e-11
FI1 7 9 VFI1 -1
VFI1 11 6 0
RCAP 6 10 1
D4 0 6 MD3
* Default values used in MD3:
*   EG=1.11 XTI=3.0 TT=0 CJO=0
*   RS=0 BV=infinite IBV=1mA
.MODEL MD3 D IS=1e-10 N=0.4
.ENDS nud3105lt1_mosfet
*

.SUBCKT nud3105dmt1 1 2 3 4 5 6
*******************************************
*  Model Generated by ON Discrete CZ Lab  *
*     Copyright(c) ON Semiconductor       *
*          All Rights Reserved            *
*      UNPUBLISHED LICENSED SOFTWARE      *
*     Contains Proprietary Information    *
*                                         *
*   Commercial Use or Resale Restricted   *
*******************************************
* Model generated on Sep 10, 2003
* MODEL FORMAT: PSpice
* External Node Designations
* pin1     pin2   pin3    pin4     pin5   pin6
* source1  gate1  drain2  source2  gate2  drain1
*
X1   6  8  1 nud3105lt1_mosfet
D1   7  6    nud3105lt1_zener_80r
D2   7  8    nud3105lt1_zener_80r
D3   9  8    nud3105lt1_zener_67r
D4   9  1    nud3105lt1_zener_67r
D5  10  2    nud3105lt1_zener_67r
D6  10  1    nud3105lt1_zener_67r
RG1  2  5    1k
RGS1 2  3    275k TC=-6.8419E-03, 2.4207E-05
*
X2   3 12  4 nud3105lt1_mosfet
D7  11  3    nud3105lt1_zener_80r
D8  11 12    nud3105lt1_zener_80r
D9  13 12    nud3105lt1_zener_67r
D10 13  4    nud3105lt1_zener_67r
D11 14  5    nud3105lt1_zener_67r
D12 14  4    nud3105lt1_zener_67r
RG2  2  5    1k
RGS2 2  3    275k TC=-6.8419E-03, 2.4207E-05
.MODEL NUD3105LT1_ZENER_80r D
+ BV=5.71
+ IBV=0.01
+ TBV1=2.7E-04
+ TBV2=9E-07
+ XTI = 0
*
.MODEL NUD3105LT1_ZENER_67r D
+ BV=5.982
+ IBV=0.01
.ENDS nud3105dmt1
*

.SUBCKT nud3112lt1 1 2 3
*******************************************
*  Model Generated by ON Discrete CZ Lab  *
*     Copyright(c) ON Semiconductor       *
*          All Rights Reserved            *
*      UNPUBLISHED LICENSED SOFTWARE      *
*     Contains Proprietary Information    *
*                                         *
*   Commercial Use or Resale Restricted   *
*******************************************
* Model generated on Sep 10, 2003
* MODEL FORMAT: PSpice
* External Node Designations
* Node 1 -> Drain
* Node 2 -> Gate
* Node 3 -> Source
*
X1 1  5  3 nud3112lt1_mosfet
D1 4  1    nud3112lt1_zener_156r
D2 4  5    nud3112lt1_zener_156r
D3 6  5    nud3112lt1_zener_67r
D4 6  3    nud3112lt1_zener_67r
D5 7  2    nud3112lt1_zener_67r
D6 7  3    nud3112lt1_zener_67r
RG  2  5   1k
RGS 2  3   200k TC=-6.0710E-03, 3.1612E-05
.MODEL NUD3112LT1_ZENER_156r D
+ BV=13.91
+ IBV=0.01
+ TBV1=1.05E-04
+ TBV2=1.3E-06
+ XTI=0
*
.MODEL NUD3112LT1_ZENER_67r D
+ BV=5.982
+ IBV=0.01
.ENDS nud3112lt1
*

*nsi45030 PSpice model (constant Iak slope)
*$
.SUBCKT NSI45030AT1G ANODE CATHODE  
R_Rpeak         VAKPEAK ANODE  7G  
G_Iak         ANODE CATHODE VALUE { {IakFunc(V(ANODE, CATHODE),temp,Slope,V(IREG, CATHODE))} }
C_Cpeak         CATHODE VAKPEAK  0.1n  
D_D1         CATHODE ANODE DLIM 
E_VakPeakTable         VAKTABLE CATHODE TABLE { V(ANODE, CATHODE) } 
+ ( (0,0) (3,31.8m) (4,34.3m) (5,35.5m) (7,36.8m) (10,37.8m) (60,38m) )
D_D2         N168443 CATHODE DLIM 
V_Vbr         ANODE N168443 {Vakbr}
R_Rpeak1         N169893 VAKPEAK  40G  
E_IakPeak         IREG CATHODE VALUE {
+  IakPeakFunc(V(VAKTABLE, CATHODE),Iregss,V(ANODE, CATHODE),V(VAKPEAK, CATHODE)) }
C_Cpeak1         CATHODE N169893  0.1n  
R_R1         CATHODE IREG  1k  
.PARAM Iregss=30m
.PARAM Vakbr=52
.PARAM Slope=3e-7
.FUNC IakFunc(Vak,T,k,current)
+{(-0.0025*T+1.0746)*current*(1-exp(-Vak/0.9))+Vak*k}
.FUNC IakPeakFunc(VakTable,Iregss,Vak,VakPeak)
+{IF(Vak>0, (Iregss+(VakTable-Iregss)*((Vak-Vakpeak)/Vak)), 0)}
.MODEL DLIM D
+IS=1e-10
+RS=1e-2
.ENDS
*$

*nsi45030 PSpice model (constant Iak slope)
*$
.SUBCKT NSI45030AZT1G ANODE CATHODE  
R_Rpeak         VAKPEAK ANODE  7G  
G_Iak         ANODE CATHODE VALUE { {IakFunc(V(ANODE, CATHODE),temp,Slope,V(IREG, CATHODE))} }
C_Cpeak         CATHODE VAKPEAK  0.1n  
D_D1         CATHODE ANODE DLIM 
E_VakPeakTable         VAKTABLE CATHODE TABLE { V(ANODE, CATHODE) } 
+ ( (0,0) (3,31.8m) (4,34.3m) (5,35.5m) (7,36.8m) (10,37.8m) (60,38m) )
D_D2         N168443 CATHODE DLIM 
V_Vbr         ANODE N168443 {Vakbr}
R_Rpeak1         N169893 VAKPEAK  40G  
E_IakPeak         IREG CATHODE VALUE {
+  IakPeakFunc(V(VAKTABLE, CATHODE),Iregss,V(ANODE, CATHODE),V(VAKPEAK, CATHODE)) }
C_Cpeak1         CATHODE N169893  0.1n  
R_R1         CATHODE IREG  1k  
.PARAM Iregss=30m
.PARAM Vakbr=52
.PARAM Slope=3e-7
.FUNC IakFunc(Vak,T,k,current)
+{(-0.0025*T+1.0746)*current*(1-exp(-Vak/0.9))+Vak*k}
.FUNC IakPeakFunc(VakTable,Iregss,Vak,VakPeak)
+{IF(Vak>0, (Iregss+(VakTable-Iregss)*((Vak-Vakpeak)/Vak)), 0)}
.MODEL DLIM D
+IS=1e-10
+RS=1e-2
.ENDS
*$

*nsi45030 PSpice model (constant Iak slope)
*$
.SUBCKT NSI45030T1G ANODE CATHODE  
R_Rpeak         VAKPEAK ANODE  7G  
G_Iak         ANODE CATHODE VALUE { {IakFunc(V(ANODE, CATHODE),temp,Slope,V(IREG, CATHODE))} }
C_Cpeak         CATHODE VAKPEAK  0.1n  
D_D1         CATHODE ANODE DLIM 
E_VakPeakTable         VAKTABLE CATHODE TABLE { V(ANODE, CATHODE) } 
+ ( (0,0) (3,31.8m) (4,34.3m) (5,35.5m) (7,36.8m) (10,37.8m) (60,38m) )
D_D2         N168443 CATHODE DLIM 
V_Vbr         ANODE N168443 {Vakbr}
R_Rpeak1         N169893 VAKPEAK  40G  
E_IakPeak         IREG CATHODE VALUE {
+  IakPeakFunc(V(VAKTABLE, CATHODE),Iregss,V(ANODE, CATHODE),V(VAKPEAK, CATHODE)) }
C_Cpeak1         CATHODE N169893  0.1n  
R_R1         CATHODE IREG  1k  
.PARAM Iregss=30m
.PARAM Vakbr=52
.PARAM Slope=3e-7
.FUNC IakFunc(Vak,T,k,current)
+{(-0.0025*T+1.0746)*current*(1-exp(-Vak/0.9))+Vak*k}
.FUNC IakPeakFunc(VakTable,Iregss,Vak,VakPeak)
+{IF(Vak>0, (Iregss+(VakTable-Iregss)*((Vak-Vakpeak)/Vak)), 0)}
.MODEL DLIM D
+IS=1e-10
+RS=1e-2
.ENDS
*$

*nsi45030 PSpice model (constant Iak slope)
*$
.SUBCKT NSI45030ZT1G ANODE CATHODE  
R_Rpeak         VAKPEAK ANODE  7G  
G_Iak         ANODE CATHODE VALUE { {IakFunc(V(ANODE, CATHODE),temp,Slope,V(IREG, CATHODE))} }
C_Cpeak         CATHODE VAKPEAK  0.1n  
D_D1         CATHODE ANODE DLIM 
E_VakPeakTable         VAKTABLE CATHODE TABLE { V(ANODE, CATHODE) } 
+ ( (0,0) (3,31.8m) (4,34.3m) (5,35.5m) (7,36.8m) (10,37.8m) (60,38m) )
D_D2         N168443 CATHODE DLIM 
V_Vbr         ANODE N168443 {Vakbr}
R_Rpeak1         N169893 VAKPEAK  40G  
E_IakPeak         IREG CATHODE VALUE {
+  IakPeakFunc(V(VAKTABLE, CATHODE),Iregss,V(ANODE, CATHODE),V(VAKPEAK, CATHODE)) }
C_Cpeak1         CATHODE N169893  0.1n  
R_R1         CATHODE IREG  1k  
.PARAM Iregss=30m
.PARAM Vakbr=52
.PARAM Slope=3e-7
.FUNC IakFunc(Vak,T,k,current)
+{(-0.0025*T+1.0746)*current*(1-exp(-Vak/0.9))+Vak*k}
.FUNC IakPeakFunc(VakTable,Iregss,Vak,VakPeak)
+{IF(Vak>0, (Iregss+(VakTable-Iregss)*((Vak-Vakpeak)/Vak)), 0)}
.MODEL DLIM D
+IS=1e-10
+RS=1e-2
.ENDS
*$

*nsi45030 PSpice model (constant Iak slope)
*$
.SUBCKT nsi45015W ANODE CATHODE  
R_Rpeak         VAKPEAK ANODE  7G  
G_Iak         ANODE CATHODE VALUE { {IakFunc(V(ANODE, CATHODE),temp,Slope,V(IREG, CATHODE))} }
C_Cpeak         CATHODE VAKPEAK  0.1n  
D_D1         CATHODE ANODE DLIM 
E_VakPeakTable         VAKTABLE CATHODE TABLE { V(ANODE, CATHODE) } 
+ ( (0,0) (3,31.8m) (4,34.3m) (5,35.5m) (7,36.8m) (10,37.8m) (60,38m) )
D_D2         N168443 CATHODE DLIM 
V_Vbr         ANODE N168443 {Vakbr}
R_Rpeak1         N169893 VAKPEAK  40G  
E_IakPeak         IREG CATHODE VALUE {
+  IakPeakFunc(V(VAKTABLE, CATHODE),Iregss,V(ANODE, CATHODE),V(VAKPEAK, CATHODE)) }
C_Cpeak1         CATHODE N169893  0.1n  
R_R1         CATHODE IREG  1k  
.PARAM Iregss=15m
.PARAM Vakbr=52
.PARAM Slope=3e-7
.FUNC IakFunc(Vak,T,k,current)
+{(-0.0025*T+1.0746)*current*1*(1-exp(-Vak/0.9))+Vak*k}
.FUNC IakPeakFunc(VakTable,Iregss,Vak,VakPeak)
+{IF(Vak>0, (Iregss+(VakTable-Iregss)*((Vak-Vakpeak)/Vak)), 0)}
.MODEL DLIM D
+IS=1e-10
+RS=1e-2
.ENDS
*$

*nsi45030 PSpice model (constant Iak slope)
*$
.SUBCKT NSI50010YT1G ANODE CATHODE  
R_Rpeak         VAKPEAK ANODE  7G  
G_Iak         ANODE CATHODE VALUE { {IakFunc(V(ANODE, CATHODE),temp,Slope,V(IREG, CATHODE))} }
C_Cpeak         CATHODE VAKPEAK  0.1n  
D_D1         CATHODE ANODE DLIM 
E_VakPeakTable         VAKTABLE CATHODE TABLE { V(ANODE, CATHODE) } 
+ ( (0,0) (3,31.8m) (4,34.3m) (5,35.5m) (7,36.8m) (10,37.8m) (60,38m) )
D_D2         N168443 CATHODE DLIM 
V_Vbr         ANODE N168443 {Vakbr}
R_Rpeak1         N169893 VAKPEAK  40G  
E_IakPeak         IREG CATHODE VALUE {
+  IakPeakFunc(V(VAKTABLE, CATHODE),Iregss,V(ANODE, CATHODE),V(VAKPEAK, CATHODE)) }
C_Cpeak1         CATHODE N169893  0.1n  
R_R1         CATHODE IREG  1k  
.PARAM Iregss=10m
.PARAM Vakbr=52
.PARAM Slope=3e-7
.FUNC IakFunc(Vak,T,k,current)
+{(-0.0025*T+1.0746)*current*(1-exp(-Vak/0.9))+Vak*k}
.FUNC IakPeakFunc(VakTable,Iregss,Vak,VakPeak)
+{IF(Vak>0, (Iregss+(VakTable-Iregss)*((Vak-Vakpeak)/Vak)), 0)}
.MODEL DLIM D
+IS=1e-10
+RS=1e-2
.ENDS
*$

*nsi45030 PSpice model (constant Iak slope)
*$
.SUBCKT NSI45025AZT1G ANODE CATHODE  
R_Rpeak         VAKPEAK ANODE  7G  
G_Iak         ANODE CATHODE VALUE { {IakFunc(V(ANODE, CATHODE),temp,Slope,V(IREG, CATHODE))} }
C_Cpeak         CATHODE VAKPEAK  0.1n  
D_D1         CATHODE ANODE DLIM 
E_VakPeakTable         VAKTABLE CATHODE TABLE { V(ANODE, CATHODE) } 
+ ( (0,0) (3,31.8m) (4,34.3m) (5,35.5m) (7,36.8m) (10,37.8m) (60,38m) )
D_D2         N168443 CATHODE DLIM 
V_Vbr         ANODE N168443 {Vakbr}
R_Rpeak1         N169893 VAKPEAK  40G  
E_IakPeak         IREG CATHODE VALUE {
+  IakPeakFunc(V(VAKTABLE, CATHODE),Iregss,V(ANODE, CATHODE),V(VAKPEAK, CATHODE)) }
C_Cpeak1         CATHODE N169893  0.1n  
R_R1         CATHODE IREG  1k  
.PARAM Iregss=25m
.PARAM Vakbr=52
.PARAM Slope=3e-7
.FUNC IakFunc(Vak,T,k,current)
+{(-0.0025*T+1.0746)*current*(1-exp(-Vak/0.9))+Vak*k}
.FUNC IakPeakFunc(VakTable,Iregss,Vak,VakPeak)
+{IF(Vak>0, (Iregss+(VakTable-Iregss)*((Vak-Vakpeak)/Vak)), 0)}
.MODEL DLIM D
+IS=1e-10
+RS=1e-2
.ENDS
*$

*nsi45030 PSpice model (constant Iak slope)
*$
.SUBCKT NSI45025ZT1G ANODE CATHODE  
R_Rpeak         VAKPEAK ANODE  7G  
G_Iak         ANODE CATHODE VALUE { {IakFunc(V(ANODE, CATHODE),temp,Slope,V(IREG, CATHODE))} }
C_Cpeak         CATHODE VAKPEAK  0.1n  
D_D1         CATHODE ANODE DLIM 
E_VakPeakTable         VAKTABLE CATHODE TABLE { V(ANODE, CATHODE) } 
+ ( (0,0) (3,31.8m) (4,34.3m) (5,35.5m) (7,36.8m) (10,37.8m) (60,38m) )
D_D2         N168443 CATHODE DLIM 
V_Vbr         ANODE N168443 {Vakbr}
R_Rpeak1         N169893 VAKPEAK  40G  
E_IakPeak         IREG CATHODE VALUE {
+  IakPeakFunc(V(VAKTABLE, CATHODE),Iregss,V(ANODE, CATHODE),V(VAKPEAK, CATHODE)) }
C_Cpeak1         CATHODE N169893  0.1n  
R_R1         CATHODE IREG  1k  
.PARAM Iregss=25m
.PARAM Vakbr=52
.PARAM Slope=3e-7
.FUNC IakFunc(Vak,T,k,current)
+{(-0.0025*T+1.0746)*current*(1-exp(-Vak/0.9))+Vak*k}
.FUNC IakPeakFunc(VakTable,Iregss,Vak,VakPeak)
+{IF(Vak>0, (Iregss+(VakTable-Iregss)*((Vak-Vakpeak)/Vak)), 0)}
.MODEL DLIM D
+IS=1e-10
+RS=1e-2
.ENDS
*$

*nsi45030 PSpice model (constant Iak slope)
*$
.SUBCKT NSI45025AT1G ANODE CATHODE  
R_Rpeak         VAKPEAK ANODE  7G  
G_Iak         ANODE CATHODE VALUE { {IakFunc(V(ANODE, CATHODE),temp,Slope,V(IREG, CATHODE))} }
C_Cpeak         CATHODE VAKPEAK  0.1n  
D_D1         CATHODE ANODE DLIM 
E_VakPeakTable         VAKTABLE CATHODE TABLE { V(ANODE, CATHODE) } 
+ ( (0,0) (3,31.8m) (4,34.3m) (5,35.5m) (7,36.8m) (10,37.8m) (60,38m) )
D_D2         N168443 CATHODE DLIM 
V_Vbr         ANODE N168443 {Vakbr}
R_Rpeak1         N169893 VAKPEAK  40G  
E_IakPeak         IREG CATHODE VALUE {
+  IakPeakFunc(V(VAKTABLE, CATHODE),Iregss,V(ANODE, CATHODE),V(VAKPEAK, CATHODE)) }
C_Cpeak1         CATHODE N169893  0.1n  
R_R1         CATHODE IREG  1k  
.PARAM Iregss=25m
.PARAM Vakbr=52
.PARAM Slope=3e-7
.FUNC IakFunc(Vak,T,k,current)
+{(-0.0025*T+1.0746)*current*(1-exp(-Vak/0.9))+Vak*k}
.FUNC IakPeakFunc(VakTable,Iregss,Vak,VakPeak)
+{IF(Vak>0, (Iregss+(VakTable-Iregss)*((Vak-Vakpeak)/Vak)), 0)}
.MODEL DLIM D
+IS=1e-10
+RS=1e-2
.ENDS
*$

*nsi45030 PSpice model (constant Iak slope)
*$
.SUBCKT NSI45020AT1G ANODE CATHODE  
R_Rpeak         VAKPEAK ANODE  7G  
G_Iak         ANODE CATHODE VALUE { {IakFunc(V(ANODE, CATHODE),temp,Slope,V(IREG, CATHODE))} }
C_Cpeak         CATHODE VAKPEAK  0.1n  
D_D1         CATHODE ANODE DLIM 
E_VakPeakTable         VAKTABLE CATHODE TABLE { V(ANODE, CATHODE) } 
+ ( (0,0) (3,31.8m) (4,34.3m) (5,35.5m) (7,36.8m) (10,37.8m) (60,38m) )
D_D2         N168443 CATHODE DLIM 
V_Vbr         ANODE N168443 {Vakbr}
R_Rpeak1         N169893 VAKPEAK  40G  
E_IakPeak         IREG CATHODE VALUE {
+  IakPeakFunc(V(VAKTABLE, CATHODE),Iregss,V(ANODE, CATHODE),V(VAKPEAK, CATHODE)) }
C_Cpeak1         CATHODE N169893  0.1n  
R_R1         CATHODE IREG  1k  
.PARAM Iregss=20m
.PARAM Vakbr=52
.PARAM Slope=3e-7
.FUNC IakFunc(Vak,T,k,current)
+{(-0.0025*T+1.0746)*current*(1-exp(-Vak/0.9))+Vak*k}
.FUNC IakPeakFunc(VakTable,Iregss,Vak,VakPeak)
+{IF(Vak>0, (Iregss+(VakTable-Iregss)*((Vak-Vakpeak)/Vak)), 0)}
.MODEL DLIM D
+IS=1e-10
+RS=1e-2
.ENDS
*$

*nsi45030 PSpice model (constant Iak slope)
*$
.SUBCKT NSI45025T1G ANODE CATHODE  
R_Rpeak         VAKPEAK ANODE  7G  
G_Iak         ANODE CATHODE VALUE { {IakFunc(V(ANODE, CATHODE),temp,Slope,V(IREG, CATHODE))} }
C_Cpeak         CATHODE VAKPEAK  0.1n  
D_D1         CATHODE ANODE DLIM 
E_VakPeakTable         VAKTABLE CATHODE TABLE { V(ANODE, CATHODE) } 
+ ( (0,0) (3,31.8m) (4,34.3m) (5,35.5m) (7,36.8m) (10,37.8m) (60,38m) )
D_D2         N168443 CATHODE DLIM 
V_Vbr         ANODE N168443 {Vakbr}
R_Rpeak1         N169893 VAKPEAK  40G  
E_IakPeak         IREG CATHODE VALUE {
+  IakPeakFunc(V(VAKTABLE, CATHODE),Iregss,V(ANODE, CATHODE),V(VAKPEAK, CATHODE)) }
C_Cpeak1         CATHODE N169893  0.1n  
R_R1         CATHODE IREG  1k  
.PARAM Iregss=25m
.PARAM Vakbr=52
.PARAM Slope=3e-7
.FUNC IakFunc(Vak,T,k,current)
+{(-0.0025*T+1.0746)*current*(1-exp(-Vak/0.9))+Vak*k}
.FUNC IakPeakFunc(VakTable,Iregss,Vak,VakPeak)
+{IF(Vak>0, (Iregss+(VakTable-Iregss)*((Vak-Vakpeak)/Vak)), 0)}
.MODEL DLIM D
+IS=1e-10
+RS=1e-2
.ENDS
*$

*nsi50350 PSpice model (constant Iak slope)
*$
.SUBCKT nsi50350AS ANODE CATHODE  
R_Rpeak         VAKPEAK ANODE  7G  
G_Iak         ANODE CATHODE VALUE { {IakFunc(V(ANODE, CATHODE),temp,Slope,V(IREG, CATHODE))} }
C_Cpeak         CATHODE VAKPEAK  0.1n  
D_D1         CATHODE ANODE DLIM 
E_VakPeakTable         VAKTABLE CATHODE TABLE { V(ANODE, CATHODE) } 
+ ( (0,0) (3,31.8m) (4,34.3m) (5,35.5m) (7,36.8m) (10,37.8m) (60,38m) )
D_D2         N168443 CATHODE DLIM 
V_Vbr         ANODE N168443 {Vakbr}
R_Rpeak1         N169893 VAKPEAK  40G  
E_IakPeak         IREG CATHODE VALUE {
+  IakPeakFunc(V(VAKTABLE, CATHODE),Iregss,V(ANODE, CATHODE),V(VAKPEAK, CATHODE)) }
C_Cpeak1         CATHODE N169893  0.1n  
R_R1         CATHODE IREG  1k  
.PARAM Iregss=350m
.PARAM Vakbr=52
.PARAM Slope=3e-7
.FUNC IakFunc(Vak,T,k,current)
+{(-0.0025*T+1.0746)*current*(1-exp(-Vak/1.1))+Vak*k}
.FUNC IakPeakFunc(VakTable,Iregss,Vak,VakPeak)
+{IF(Vak>0, (Iregss+(VakTable-Iregss)*((Vak-Vakpeak)/Vak)), 0)}
.MODEL DLIM D
+IS=1e-10
+RS=1e-2
.ENDS
*$

*nsi45030 PSpice model (constant Iak slope)
*$
.SUBCKT NSI45020T1G ANODE CATHODE  
R_Rpeak         VAKPEAK ANODE  7G  
G_Iak         ANODE CATHODE VALUE { {IakFunc(V(ANODE, CATHODE),temp,Slope,V(IREG, CATHODE))} }
C_Cpeak         CATHODE VAKPEAK  0.1n  
D_D1         CATHODE ANODE DLIM 
E_VakPeakTable         VAKTABLE CATHODE TABLE { V(ANODE, CATHODE) } 
+ ( (0,0) (3,31.8m) (4,34.3m) (5,35.5m) (7,36.8m) (10,37.8m) (60,38m) )
D_D2         N168443 CATHODE DLIM 
V_Vbr         ANODE N168443 {Vakbr}
R_Rpeak1         N169893 VAKPEAK  40G  
E_IakPeak         IREG CATHODE VALUE {
+  IakPeakFunc(V(VAKTABLE, CATHODE),Iregss,V(ANODE, CATHODE),V(VAKPEAK, CATHODE)) }
C_Cpeak1         CATHODE N169893  0.1n  
R_R1         CATHODE IREG  1k  
.PARAM Iregss=20m
.PARAM Vakbr=52
.PARAM Slope=3e-7
.FUNC IakFunc(Vak,T,k,current)
+{(-0.0025*T+1.0746)*current*(1-exp(-Vak/0.9))+Vak*k}
.FUNC IakPeakFunc(VakTable,Iregss,Vak,VakPeak)
+{IF(Vak>0, (Iregss+(VakTable-Iregss)*((Vak-Vakpeak)/Vak)), 0)}
.MODEL DLIM D
+IS=1e-10
+RS=1e-2
.ENDS
*$

