*ON Semi Diodes

*ESD Protection Diodes

.SUBCKT esd9l5-0st5g 7 1
* Model generated on Sep 20, 07
* MODEL FORMAT: PSpice
*     anode cathode
*node: 7      1
*    Forward Section
D1 2 1 MDD1
.MODEL MDD1 D IS=3.82624e-16 N=1 XTI=1 RS=12.2
+ CJO=5e-13 TT=2e-09
*    Leakage Current
R 1 2 MDR 6.25e+07
.MODEL MDR RES TC1=0 TC2=0
*    Breakdown
RZ 2 3 1.60092 
D3 4 3 MDD3
.MODEL MDD3 D IS=2.5e-15 N=0.5 
EV1 1 4 6 8 1
IBV 0 6 0.001
RBV 6 0 MDRBV 6200
.MODEL MDRBV RES TC1=0.00043
D4 8 0 MDD3
L 7 2 1e-15
IT 0 8 0.001
.ENDS esd9l5-0st5g

.SUBCKT nup8010mnt1g 7 1
* Model generated on Dec 22, 05
* MODEL FORMAT: PSpice
*     anode cathode
*node: 7      1
*    Forward Section
D1 2 1 MDD1
.MODEL MDD1 D IS=1.06441e-17 N=1 XTI=1 RS=0.5
+ CJO=1.3e-11 TT=1e-08
*    Leakage Current
R 1 2 MDR 3e+08
.MODEL MDR RES TC1=0 TC2=0
*    Breakdown
RZ 2 3 4.56545 
D3 4 3 MDD3
.MODEL MDD3 D IS=2.5e-15 N=0.5 
EV1 1 4 6 8 1
IBV 0 6 0.001
RBV 6 0 MDRBV 5600
.MODEL MDRBV RES TC1=0.000269
D4 8 0 MDD3
L 7 2 1e-15
IT 0 8 0.001
.ENDS nup8010mnt1g

.SUBCKT esd5z12t1 7 1
* Model generated on Dec  9, 05
* MODEL FORMAT: PSpice
*     anode cathode
*node: 7      1
*    Forward Section
D1 2 1 MDD1
.MODEL MDD1 D IS=1.98126e-16 N=1 XTI=1 RS=0.5
+ CJO=5.57e-11 TT=1e-08
*    Leakage Current
R 1 2 MDR 4.8e+09
.MODEL MDR RES TC1=0 TC2=0
*    Breakdown
RZ 2 3 1.12308 
D3 4 3 MDD3
.MODEL MDD3 D IS=2.5e-15 N=0.5 
EV1 1 4 6 8 1
IBV 0 6 0.001
RBV 6 0 MDRBV 14100
.MODEL MDRBV RES TC1=0.0008
D4 8 0 MDD3
L 7 2 1e-15
IT 0 8 0.001
.ENDS esd5z12t1

.SUBCKT nup4304mr6t1 1 2 3 4 5 6
*******************************************
* Model Generated by ON Discrete Eval Lab *
*    Copyright(c) ON Semiconductor        *
*         All Rights Reserved             *
*      UNPUBLISHED LICENSED SOFTWARE      *
*     Contains Proprietary Information    *
*                                         *
*   Commercial Use or Resale Restricted   *
*******************************************
* Model generated on Apr 9, 2005
* MODEL FORMAT: PSpice
*     pin1  pin2   pin3   pin4   pin5   pin6
*node:  1     2      3      4      5     6  
*
D1   7  2  Dnup4304mr6t1
D2   8  2  Dnup4304mr6t1
D3   9  2  Dnup4304mr6t1
D4  10  2  Dnup4304mr6t1
D5   5  11 Dnup4304mr6t1
D6   5  12 Dnup4304mr6t1
D7   5  13 Dnup4304mr6t1
D8   5  14 Dnup4304mr6t1
*
L1   1  7  0.6N
L2   6  8  0.4N
L3   3  9  0.6N
L4   4  10 0.4N
L5   4  11 0.7N
L6   3  12 1.0N
L7   6  13 0.7N
L8   1  14 1.0N
*
.MODEL Dnup4304mr6t1 d
+IS=4.42565e-09 RS=1.12349 N=1.85685 EG=1.15597
+XTI=0.5 BV=70 IBV=0.0001 CJO=1.7367e-12
+VJ=0.4 M=0.269478 FC=0.5 TT=1.29843e-09
+KF=0 AF=1

.ENDS nup4304mr6t1

.SUBCKT NZQA5V6XV5T1 1 2 3 4 5
*******************************************
* Model Generated by ON Discrete Eval Lab *
*    Copyright(c) ON Semiconductor        *
*         All Rights Reserved             *
*      UNPUBLISHED LICENSED SOFTWARE      *
*     Contains Proprietary Information    *
*                                         *
*   Commercial Use or Resale Restricted   *
*******************************************
* Model generated on Nov 3, 2004
* MODEL FORMAT: PSpice
*     pin1  pin2   pin3   pin4   pin5
*node:  1     2      3      4      5
*
XD1  2  1  nzqa5v6xv5t1-tvs
XD2  2  3  nzqa5v6xv5t1-tvs
XD3  2  4  nzqa5v6xv5t1-tvs
XD4  2  5  nzqa5v6xv5t1-tvs
*
.ENDS NZQA5V6XV5T1
*
.SUBCKT nzqa5v6xv5t1-tvs 7 1
* Model generated on Nov  3, 04
* MODEL FORMAT: PSpice
*     anode cathode
*node: 7      1
*    Forward Section
D1 2 1 MDD1
.MODEL MDD1 D IS=3.26515e-15 N=1 XTI=1 RS=0.5
+ CJO=9e-11 TT=1e-08
*    Leakage Current
R 1 2 MDR 3e+07
.MODEL MDR RES TC1=0 TC2=0
*    Breakdown
RZ 2 3 0.368105 
D3 4 3 MDD3
.MODEL MDD3 D IS=2.5e-15 N=0.5 
EV1 1 4 6 8 1
IBV 0 6 0.001
RBV 6 0 MDRBV 5600
.MODEL MDRBV RES TC1=0.0002018
D4 8 0 MDD3
L 7 2 1e-15
IT 0 8 0.001
.ENDS nzqa5v6xv5t1-tvs

.SUBCKT nup2105lt1 1 2 3
x1 3 1 halfnup2105lt1
x2 3 2 halfnup2105lt1
.ENDS nup2105lt1
* Model represents one bidirectional pair of a dual device
.SUBCKT halfnup2105lt1 7 1
* Model generated on Aug. 06, 04
* MODEL FORMAT: PSpice
*     anode cathode
*node: 7      1
*    Forward Section
D1 2 1 MDD1
.MODEL MDD1 D IS=1.83708e-14 N=1 XTI=1 RS=0.2
+ CJO=1e-11 TT=1e-08
*    Leakage Current
R 1 2 MDR 4.32244e+08
.MODEL MDR RES TC1=0 TC2=0
*    Breakdown
RZ 2 3 10.5337 
D3 4 3 MDD3
.MODEL MDD3 D IS=2.5e-15 N=0.5 
EV1 1 4 6 8 1
IBV 0 6 0.001
RBV 6 0 MDRBV 26357.1
.MODEL MDRBV RES TC1=0.00096
D4 8 0 MDD3
L 7 2 1e-15
IT 0 8 0.001
.ENDS halfnup2105lt1

.SUBCKT nup1301lt1 1 2 3
d1 1 3 dhalfnup1301lt1
d2 3 2 dhalfnup1301lt1
.MODEL Dhalfnup1301lt1 d
+IS=4.42863e-09 RS=1.16785 N=1.85692 EG=1.17071
+XTI=5e-06 BV=70 IBV=4e-09 CJO=6.20086e-13
+VJ=0.225416 M=0.0448642 FC=0.5 TT=5.1937e-09
+KF=0 AF=1
.ENDS nup1301lt1

.SUBCKT sd12ct1 1 2
x1 3 1 halfsd12ct1
x2 3 2 halfsd12ct1
.ENDS sd12ct1
*
.SUBCKT halfsd12ct1 7 1
* Model generated on Feb 25, 05
* MODEL FORMAT: PSpice
*     anode cathode
*node: 7      1
*    Forward Section
D1 2 1 MDD1
.MODEL MDD1 D IS=3.68785e-13 N=1 XTI=1 RS=0.2
+ CJO=6.4e-11 TT=1e-08
*    Leakage Current
R 1 2 MDR 5.885e+09
.MODEL MDR RES TC1=0 TC2=0
*    Breakdown
RZ 2 3 0.3264 
D3 4 3 MDD3
.MODEL MDD3 D IS=2.5e-15 N=0.5 
EV1 1 4 6 8 1
IBV 0 6 0.001
RBV 6 0 MDRBV 14134
.MODEL MDRBV RES TC1=0
D4 8 0 MDD3
L 7 2 1e-15
IT 0 8 0.001
.ENDS halfsd12ct1

.SUBCKT NUP4301MR6T1 1 2 3 4 5 6
*******************************************
* Model Generated by ON Discrete Eval Lab *
*    Copyright(c) ON Semiconductor        *
*         All Rights Reserved             *
*      UNPUBLISHED LICENSED SOFTWARE      *
*     Contains Proprietary Information    *
*                                         *
*   Commercial Use or Resale Restricted   *
*******************************************
* Model generated on Jun 5, 2003
* MODEL FORMAT: PSpice
*     pin1  pin2   pin3   pin4   pin5   pin6
*node:  1     2      3      4      5     6
*
D1   2  7  DNUP4301MR6T1_D
D2   2  8  DNUP4301MR6T1_D
D3   2  9  DNUP4301MR6T1_D
D4   2  10 DNUP4301MR6T1_D
D5  11  5  DNUP4301MR6T1_D
D6  12  5  DNUP4301MR6T1_D
D7  13  5  DNUP4301MR6T1_D
D8  14  5  DNUP4301MR6T1_D
*
L1   1  7  0.6N
L2   6  8  0.4N
L3   3  9  0.6N
L4   4  10 0.4N
L5   4  11 0.7N
L6   3  12 1.0N
L7   6  13 0.7N
L8   1  14 1.0N
*
.MODEL Dnup4301mr6t1_d d
+IS=6.57874e-09 RS=1.06486 N=1.92349 EG=1.17337
+XTI=0 BV=70 IBV=5e-08 CJO=1.71941e-12
+VJ=0.423119 M=0.275097 FC=0.5 TT=1e-09
+KF=0 AF=1
.ENDS NUP4301MR6T1

.SUBCKT df3a6v8fut1 1 2 3
X1 3 1 halfdf3a6v8fut1
X2 3 2 halfdf3a6v8fut1
.ENDS df3a6v8fut1
*
.SUBCKT halfdf3a6v8fut1 7 1
* Model generated on Dec 12, 03
* MODEL FORMAT: PSpice
*     anode cathode
*node: 7      1
*    Forward Section
D1 2 1 MDD1
.MODEL MDD1 D IS=4.29747e-16 N=1 XTI=1 RS=0.5
+ CJO=9.3e-11 TT=1e-08
*    Leakage Current
R 1 2 MDR 2.5e+07
.MODEL MDR RES TC1=0 TC2=0
*    Breakdown
RZ 2 3 0.97147 
D3 4 3 MDD3
.MODEL MDD3 D IS=2.5e-15 N=0.5 
EV1 1 4 6 8 1
IBV 0 6 0.001
RBV 6 0 MDRBV 6800
.MODEL MDRBV RES TC1=0
D4 8 0 MDD3
L 7 2 1e-15
IT 0 8 0.005
.ENDS halfdf3a6v8fut1

.SUBCKT esd9x5_0st5g 7 1
* Model generated on May  6, 06
* MODEL FORMAT: PSpice
*     anode cathode
*node: 7      1
*    Forward Section
D1 2 1 MDD1
.MODEL MDD1 D IS=2.59798e-16 N=1 XTI=1 RS=0.5
+ CJO=6.5e-11 TT=9e-10
*    Leakage Current
R 1 2 MDR 1.59744e+08
.MODEL MDR RES TC1=-0.00487179 TC2=0
*    Breakdown
RZ 2 3 0.61527 
D3 4 3 MDD3
.MODEL MDD3 D IS=2.5e-15 N=0.5 
EV1 1 4 6 8 1
IBV 0 6 0.001
RBV 6 0 MDRBV 6830
.MODEL MDRBV RES TC1=0.000445
D4 8 0 MDD3
L 7 2 1e-15
IT 0 8 0.001
.ENDS esd9x5_0st5g

.SUBCKT nup45v6p5t5g 1 2 3 4 5
* Model generated on Jun 29, 07
* MODEL FORMAT: PSpice
* pin1  pin2  pin3  pin4  pin5
*node 1    2     3     4     5
*
XD1 2 1 Diode_nup45v6p5t5g
XD2 2 3 Diode_nup45v6p5t5g
XD3 2 4 Diode_nup45v6p5t5g
XD4 2 5 Diode_nup45v6p5t5g
*
.ENDS nup45v6p5t5g
*
.SUBCKT Diode_nup45v6p5t5g 7 1
* Model generated on Jun 29, 07
* MODEL FORMAT: PSpice
*     anode cathode
*node: 7      1
*    Forward Section
D1 2 1 MDD1
.MODEL MDD1 D IS=1.06441e-17 N=1 XTI=1 RS=0.5
+ CJO=1.5e-11 TT=1e-08
*    Leakage Current
R 1 2 MDR 6.38298e+08
.MODEL MDR RES TC1=-0.00415205 TC2=0
*    Breakdown
RZ 2 3 2.31079 
D3 4 3 MDD3
.MODEL MDD3 D IS=2.5e-15 N=0.5 
EV1 1 4 6 8 1
IBV 0 6 0.001
RBV 6 0 MDRBV 5600
.MODEL MDRBV RES TC1=0.000146
D4 8 0 MDD3
L 7 2 1e-15
IT 0 8 0.001
.ENDS Diode_nup45v6p5t5g

.SUBCKT esd7c5_0dt5g 7 1
* Model generated on May  3, 07
* MODEL FORMAT: PSpice
*     anode cathode
*node: 7      1
*    Forward Section
D1 2 1 MDD1
.MODEL MDD1 D IS=1.64881e-17 N=1 XTI=1 RS=0.767
+ CJO=6e-12 TT=1e-09
*    Leakage Current
R 1 2 MDR 5e+09
.MODEL MDR RES TC1=-0.005 TC2=0
*    Breakdown
RZ 2 3 3.59079 
D3 4 3 MDD3
.MODEL MDD3 D IS=2.5e-15 N=0.5 
EV1 1 4 6 8 1
IBV 0 6 0.001
RBV 6 0 MDRBV 12100
.MODEL MDRBV RES TC1=0
D4 8 0 MDD3
L 7 2 1e-15
IT 0 8 0.001
.ENDS esd7c5_0dt5g

.SUBCKT esd9x3_3st5g 7 1
* Model generated on May  6, 06
* MODEL FORMAT: PSpice
*     anode cathode
*node: 7      1
*    Forward Section
D1 2 1 MDD1
.MODEL MDD1 D IS=5.85762e-16 N=1 XTI=1 RS=0.5
+ CJO=8e-11 TT=9e-10
*    Leakage Current
R 1 2 MDR 9.85075e+06
.MODEL MDR RES TC1=-0.00450549 TC2=0
*    Breakdown
RZ 2 3 0.477685 
D3 4 3 MDD3
.MODEL MDD3 D IS=2.5e-15 N=0.5 
EV1 1 4 6 8 1
IBV 0 6 0.001
RBV 6 0 MDRBV 5600
.MODEL MDRBV RES TC1=0.00022
D4 8 0 MDD3
L 7 2 1e-15
IT 0 8 0.001
.ENDS esd9x3_3st5g

.SUBCKT nzl5v6axv3t1 2 1
* Model generated on Jul  3, 03
* MODEL FORMAT: PSpice
*     anode cathode
*node: 2      1
*    Forward Section
D1 2 1 MD1
.MODEL MD1 D IS=1.70021e-14 N=1 XTI=1 RS=0.2
+ CJO=3.9e-11 TT=1e-08
*    Leakage Current
R 1 2 MDR 3e+07	
.MODEL MDR RES TC1=0 TC2=0
*    Breakdown
RZ 2 3 12.4584
IZG 4 3 0.24
R4 4 3 1000
D3 3 4 MD3
.MODEL MD3 D IS=2.5e-12 N=0.377085 XTI=0 EG=0.1
D2 5 4 MD2
.MODEL MD2 D IS=2.5e-12 N=1.45183 XTI=0 EG=0.1
EV1 1 5 6 0 1
IBV 0 6 0.001
RBV 6 0 MDRBV 4980.67
.MODEL MDRBV RES TC1=0
*-- PSpice DIODE MODEL DEFAULT PARAMETER
*  VALUES ARE ASSUMED
*IS=1E-14 RS=0 N=1 TT=0 CJO=0
*VJ=1 M=0.5 EG=1.11 XTI=3 FC=0.5
*KF=0 AF=1 BV=inf IBV=1e-3 TNOM=27
.ENDS nzl5v6axv3t1

.SUBCKT sl05t1 1 2
x1 3 1 sl05t1_tvs
d1 3 2 Dcomp-diode

.MODEL Dcomp-diode d
+IS=1.00528e-14 RS=0.2 N=0.873862 EG=1.10878
+XTI=4 BV=450 IBV=1.9e-07 CJO=7.00902e-12
+VJ=1 M=0.499998 FC=0.5 TT=1e-09
+KF=0 AF=1
.ENDS sl05t1
*
.SUBCKT sl05t1_tvs 7 1
* Model generated on Jul 12, 02
* MODEL FORMAT: PSpice
*     anode cathode
*node: 7      1
*    Forward Section
D1 2 1 MDD1
.MODEL MDD1 D IS=3.68785e-13 N=1 XTI=1 RS=0.2
+ CJO=7e-12 TT=1e-08
*    Leakage Current
R 1 2 MDR 225565
.MODEL MDR RES TC1=-0.005 TC2=0
*    Breakdown
RZ 2 3 0.53976 
D3 4 3 MDD3
.MODEL MDD3 D IS=2.5e-15 N=0.5 
EV1 1 4 6 8 1
IBV 0 6 0.001
RBV 6 0 MDRBV 6423.2
.MODEL MDRBV RES TC1=0
D4 8 0 MDD3
L 7 2 1e-15
IT 0 8 0.001
.ENDS sl05t1_tvs

.SUBCKT nup4202w1t1g 1 2 3 4 5 6
*******************************************
* Model Generated by ON Discrete Eval Lab *
*    Copyright(c) ON Semiconductor        *
*         All Rights Reserved             *
*      UNPUBLISHED LICENSED SOFTWARE      *
*     Contains Proprietary Information    *
*                                         *
*   Commercial Use or Resale Restricted   *
*******************************************
* Model generated on July 19, 06
* MODEL FORMAT: PSpice
*     pin1  pin2   pin3   pin4   pin5   pin6
*node:  1     2      3      4      5     6
*
XD1  9  5  nup4202w1t1g-N
XD2 11  5  nup4202w1t1g-N
XD3 14  5  nup4202w1t1g-N
XD4 16  5  nup4202w1t1g-N
*
XD5  2 17  nup4202w1t1g-P
XD6  2 15  nup4202w1t1g-P
XD7  2 12  nup4202w1t1g-P
XD8  2 10  nup4202w1t1g-P
*
XDT  2 13  nup4202w1t1g-T
*
L1   4  9  1.5N
L2   6 16  1.5N
L3   4 10  1.5N
L4   3 12  1.5N
L5   5 13  .75N
L6   1 15  1.5N
L7   6 17  1.5N
L8   1 14  2.7N
L9   3 11  2.7N
*
.ENDS nup4202w1t1g
*
.SUBCKT nup4202w1t1g-n 2 1
* Model generated on July 19, 06
* MODEL FORMAT: PSpice
*     anode cathode
*node: 2      1
*    Forward Section
D1 2 1 MD1
.MODEL MD1 D IS=1.70021e-15 N=1 XTI=1 RS=0.468
+ CJO=1.5e-12 TT=1e-08
*    Leakage Current
R 1 2 MDR 7.2e+09	
.MODEL MDR RES TC1=0 TC2=0
*    Breakdown
RZ 2 3 8.76289
IZG 4 3 1.2
R4 4 3 500
D3 3 4 MD3
.MODEL MD3 D IS=2.5e-12 N=4.09521e-05 XTI=0 EG=0.1
D2 5 4 MD2
.MODEL MD2 D IS=2.5e-12 N=0.000478944 XTI=0 EG=0.1
EV1 1 5 6 0 1
IBV 0 6 0.001
RBV 6 0 MDRBV 470000
.MODEL MDRBV RES TC1=0
*-- PSpice DIODE MODEL DEFAULT PARAMETER
*  VALUES ARE ASSUMED
*IS=1E-14 RS=0 N=1 TT=0 CJO=0
*VJ=1 M=0.5 EG=1.11 XTI=3 FC=0.5
*KF=0 AF=1 BV=inf IBV=1e-3 TNOM=27
.ENDS nup4202w1t1g-n
*
.SUBCKT nup4202w1t1g-p 2 1
* Model generated on July 19, 06
* MODEL FORMAT: PSpice
*     anode cathode
*node: 2      1
*    Forward Section
D1 2 1 MD1
.MODEL MD1 D IS=2.06333e-15 N=1 XTI=1 RS=0.397
+ CJO=2.5e-12 TT=1e-08
*    Leakage Current
R 1 2 MDR 3.6e+10	
.MODEL MDR RES TC1=0 TC2=0
*    Breakdown
RZ 2 3 8.76289
IZG 4 3 1.2
R4 4 3 500
D3 3 4 MD3
.MODEL MD3 D IS=2.5e-12 N=4.09521e-05 XTI=0 EG=0.1
D2 5 4 MD2
.MODEL MD2 D IS=2.5e-12 N=0.000478944 XTI=0 EG=0.1
EV1 1 5 6 0 1
IBV 0 6 0.001
RBV 6 0 MDRBV 425000
.MODEL MDRBV RES TC1=0
*-- PSpice DIODE MODEL DEFAULT PARAMETER
*  VALUES ARE ASSUMED
*IS=1E-14 RS=0 N=1 TT=0 CJO=0
*VJ=1 M=0.5 EG=1.11 XTI=3 FC=0.5
*KF=0 AF=1 BV=inf IBV=1e-3 TNOM=27
.ENDS nup4202w1t1g-p
*
.SUBCKT nup4202w1t1g-t 7 1
* Model generated on July 19, 06
* MODEL FORMAT: PSpice
*     anode cathode
*node: 7      1
*    Forward Section
D1 2 1 MDD1
.MODEL MDD1 D IS=1.37284e-15 N=1 XTI=1 RS=0.5
+ CJO=3.4e-10 TT=1e-08
*    Leakage Current
R 1 2 MDR 5e+07
.MODEL MDR RES TC1=0 TC2=0
*    Breakdown
RZ 2 3 0.458105 
D3 4 3 MDD3
.MODEL MDD3 D IS=2.5e-15 N=0.5 
EV1 1 4 6 8 1
IBV 0 6 0.001
RBV 6 0 MDRBV 7300
.MODEL MDRBV RES TC1=0
D4 8 0 MDD3
L 7 2 1e-15
IT 0 8 0.001
.ENDS nup4202w1t1g-t

.SUBCKT nup4102xv6 1 2
*******************************************
* Model Generated by ON Discrete Eval Lab *
*    Copyright(c) ON Semiconductor        *
*         All Rights Reserved             *
*      UNPUBLISHED LICENSED SOFTWARE      *
*     Contains Proprietary Information    *
*                                         *
*   Commercial Use or Resale Restricted   *
*******************************************
* Model generated on Sep  5, 03
* MODEL FORMAT: PSpice
* (one section only)
*
x1 1 3 halfnup4102xv6
x2 2 3 halfnup4102xv6
.ENDS nup4102xv6
*
.SUBCKT halfnup4102xv6 7 1
* Model generated on Sep  5, 03
* MODEL FORMAT: PSpice
*     anode cathode
*node: 7      1
*    Forward Section
D1 2 1 MDD1
.MODEL MDD1 D IS=3.68785e-13 N=1 XTI=1 RS=0.2
+ CJO=1.3e-11 TT=1e-08
*    Leakage Current
R 1 2 MDR 1.17308e+09
.MODEL MDR RES TC1=0 TC2=0
*    Breakdown
RZ 2 3 0.969921 
D3 4 3 MDD3
.MODEL MDD3 D IS=2.5e-15 N=0.5 
EV1 1 4 6 8 1
IBV 0 6 0.001
RBV 6 0 MDRBV 14434.2
.MODEL MDRBV RES TC1=0
D4 8 0 MDD3
L 7 2 1e-15
IT 0 8 0.001
.ENDS halfnup4102xv6

.SUBCKT nup4302mr6t1 1 2 3 4 5 6
*******************************************
* Model Generated by ON Discrete Eval Lab *
*    Copyright(c) ON Semiconductor        *
*         All Rights Reserved             *
*      UNPUBLISHED LICENSED SOFTWARE      *
*     Contains Proprietary Information    *
*                                         *
*   Commercial Use or Resale Restricted   *
*******************************************
* Model generated on Jul 2, 2004
* MODEL FORMAT: PSpice
*     pin1  pin2   pin3   pin4   pin5   pin6
*node:  1     2      3      4      5     6  
*
D1   2  7  diode_nup4302mr6t1
D2   2  8  diode_nup4302mr6t1
D3   2  9  diode_nup4302mr6t1
D4   2  10 diode_nup4302mr6t1
D5  11  5  diode_nup4302mr6t1
D6  12  5  diode_nup4302mr6t1
D7  13  5  diode_nup4302mr6t1
D8  14  5  diode_nup4302mr6t1
*
L1   1  7  0.6N
L2   6  8  0.4N
L3   3  9  0.6N
L4   4  10 0.4N
L5   4  11 0.7N
L6   3  12 1.0N
L7   6  13 0.7N
L8   1  14 1.0N
*
.MODEL diode_nup4302mr6t1 d
+IS=1e-07 RS=0.736155 N=0.789888 EG=0.6
+XTI=2.66765 BV=30 IBV=0.0001 CJO=4.22406e-11
+VJ=0.4 M=0.535354 FC=0.5 TT=7.79055e-10
+KF=0 AF=1
.ENDS nup4302mr6t1

.SUBCKT esd9c3_3st5g 7 1
* Model generated on May  3, 07
* MODEL FORMAT: PSpice
*     anode cathode
*node: 7      1
*    Forward Section
D1 2 1 MDD1
.MODEL MDD1 D IS=6.69609e-17 N=1 XTI=1 RS=0.598
+ CJO=1.28e-11 TT=1e-09
*    Leakage Current
R 1 2 MDR 1.65e+08
.MODEL MDR RES TC1=-0.005 TC2=0
*    Breakdown
RZ 2 3 2.45079 
D3 4 3 MDD3
.MODEL MDD3 D IS=2.5e-15 N=0.5 
EV1 1 4 6 8 1
IBV 0 6 0.001
RBV 6 0 MDRBV 5560
.MODEL MDRBV RES TC1=0
D4 8 0 MDD3
L 7 2 1e-15
IT 0 8 0.001
.ENDS esd9c3_3st5g

.SUBCKT nzqa6v8axv5t1g 1 2 3 4 5
* Model generated on Jun 29, 07
* MODEL FORMAT: PSpice
* pin1  pin2  pin3  pin4  pin5
*node 1    2     3     4     5
*
XD1 2 1 Diode_nzqa6v8axv5t1g
XD2 2 3 Diode_nzqa6v8axv5t1g
XD3 2 4 Diode_nzqa6v8axv5t1g
XD4 2 5 Diode_nzqa6v8axv5t1g
*
.ENDS nzqa6v8axv5t1g
*
.SUBCKT Diode_nzqa6v8axv5t1g 7 1
* Model generated on Jun 29, 07
* MODEL FORMAT: PSpice
*     anode cathode
*node: 7      1
*    Forward Section
D1 2 1 MDD1
.MODEL MDD1 D IS=1.06441e-17 N=1 XTI=1 RS=0.5
+ CJO=1.28e-11 TT=1e-08
*    Leakage Current
R 1 2 MDR 1.075e+09
.MODEL MDR RES TC1=-0.00415205 TC2=0
*    Breakdown
RZ 2 3 3.81545 
D3 4 3 MDD3
.MODEL MDD3 D IS=2.5e-15 N=0.5 
EV1 1 4 6 8 1
IBV 0 6 0.001
RBV 6 0 MDRBV 6800
.MODEL MDRBV RES TC1=0.00035
D4 8 0 MDD3
L 7 2 1e-15
IT 0 8 0.001
.ENDS Diode_nzqa6v8axv5t1g

.SUBCKT esd9b5_0st5g 1 2
x1 3 1 esd9b5_0st5g_tvs 
x2 3 2 esd9b5_0st5g_tvs
.ENDS esd9b5_0st5g 
*
.SUBCKT esd9b5_0st5g_tvs 7 1
* Model generated on Apr  2, 07
* MODEL FORMAT: PSpice
*     anode cathode
*node: 7      1
*    Forward Section
D1 2 1 MDD1
.MODEL MDD1 D IS=1.73344e-15 N=1 XTI=1 RS=0.5
+ CJO=1.2e-11 TT=2e-09
*    Leakage Current
R 1 2 MDR 5e+09
.MODEL MDR RES TC1=0 TC2=0
*    Breakdown
RZ 2 3 0.0772053 
D3 4 3 MDD3
.MODEL MDD3 D IS=2.5e-15 N=0.5 
EV1 1 4 6 8 1
IBV 0 6 0.001
RBV 6 0 MDRBV 6000
.MODEL MDRBV RES TC1=0
D4 8 0 MDD3
L 7 2 1e-15
IT 0 8 0.001
.ENDS esd9b5_0st5g_tvs

.SUBCKT nup2202w1t1g 1 2 5 6
*******************************************
* Model Generated by ON Discrete Eval Lab *
*    Copyright(c) ON Semiconductor        *
*         All Rights Reserved             *
*      UNPUBLISHED LICENSED SOFTWARE      *
*     Contains Proprietary Information    *
*                                         *
*   Commercial Use or Resale Restricted   *
*******************************************
* Model generated on July 25, 06
* MODEL FORMAT: PSpice
*     pin1  pin2   pin3   pin4   pin5   pin6
*node:  1     2      3      4      5     6
*
XD1  10  5  nup2202w1t1g-n
XD2   9  5  nup2202w1t1g-n
*
XD3   2  7  nup2202w1t1g-p
XD4   2  8  nup2202w1t1g-p
*
XDT   2 11  nup2202w1t1g-T
*
L1   6 10  1.5N
L2   1  9  1.5N
L3   1  7  1.5N
L4   6  8  1.5N
L5   5 11  .75N
*
.ENDS nup2202w1t1g
*
.SUBCKT nup2202w1t1g-n 2 1
* Model generated on July 25, 06
* MODEL FORMAT: PSpice
*     anode cathode
*node: 2      1
*    Forward Section
D1 2 1 MD1
.MODEL MD1 D IS=1.70021e-15 N=1 XTI=1 RS=0.468
+ CJO=1.5e-12 TT=1e-08
*    Leakage Current
R 1 2 MDR 7.2e+09	
.MODEL MDR RES TC1=0 TC2=0
*    Breakdown
RZ 2 3 8.76289
IZG 4 3 1.2
R4 4 3 500
D3 3 4 MD3
.MODEL MD3 D IS=2.5e-12 N=4.09521e-05 XTI=0 EG=0.1
D2 5 4 MD2
.MODEL MD2 D IS=2.5e-12 N=0.000478944 XTI=0 EG=0.1
EV1 1 5 6 0 1
IBV 0 6 0.001
RBV 6 0 MDRBV 470000
.MODEL MDRBV RES TC1=0
*-- PSpice DIODE MODEL DEFAULT PARAMETER
*  VALUES ARE ASSUMED
*IS=1E-14 RS=0 N=1 TT=0 CJO=0
*VJ=1 M=0.5 EG=1.11 XTI=3 FC=0.5
*KF=0 AF=1 BV=inf IBV=1e-3 TNOM=27
.ENDS nup2202w1t1g-n
*
.SUBCKT nup2202w1t1g-p 2 1
* Model generated on July 25, 06
* MODEL FORMAT: PSpice
*     anode cathode
*node: 2      1
*    Forward Section
D1 2 1 MD1
.MODEL MD1 D IS=2.06333e-15 N=1 XTI=1 RS=0.397
+ CJO=2.5e-12 TT=1e-08
*    Leakage Current
R 1 2 MDR 3.6e+10	
.MODEL MDR RES TC1=0 TC2=0
*    Breakdown
RZ 2 3 8.76289
IZG 4 3 1.2
R4 4 3 500
D3 3 4 MD3
.MODEL MD3 D IS=2.5e-12 N=4.09521e-05 XTI=0 EG=0.1
D2 5 4 MD2
.MODEL MD2 D IS=2.5e-12 N=0.000478944 XTI=0 EG=0.1
EV1 1 5 6 0 1
IBV 0 6 0.001
RBV 6 0 MDRBV 425000
.MODEL MDRBV RES TC1=0
*-- PSpice DIODE MODEL DEFAULT PARAMETER
*  VALUES ARE ASSUMED
*IS=1E-14 RS=0 N=1 TT=0 CJO=0
*VJ=1 M=0.5 EG=1.11 XTI=3 FC=0.5
*KF=0 AF=1 BV=inf IBV=1e-3 TNOM=27
.ENDS nup2202w1t1g-p
*
.SUBCKT nup2202w1t1g-t 7 1
* Model generated on July 25, 06
* MODEL FORMAT: PSpice
*     anode cathode
*node: 7      1
*    Forward Section
D1 2 1 MDD1
.MODEL MDD1 D IS=1.37284e-15 N=1 XTI=1 RS=0.5
+ CJO=3.4e-10 TT=1e-08
*    Leakage Current
R 1 2 MDR 5e+07
.MODEL MDR RES TC1=0 TC2=0
*    Breakdown
RZ 2 3 0.458105 
D3 4 3 MDD3
.MODEL MDD3 D IS=2.5e-15 N=0.5 
EV1 1 4 6 8 1
IBV 0 6 0.001
RBV 6 0 MDRBV 7300
.MODEL MDRBV RES TC1=0
D4 8 0 MDD3
L 7 2 1e-15
IT 0 8 0.001
.ENDS nup2202w1t1g-t

.SUBCKT ESD5B50T1G 1 3
*******************************************
* Model Generated by ON Discrete Eval Lab *
*    Copyright(c) ON Semiconductor        *
*         All Rights Reserved             *
*      UNPUBLISHED LICENSED SOFTWARE      *
*     Contains Proprietary Information    *
*                                         *
*   Commercial Use or Resale Restricted   *
*******************************************
* Model generated on Oct. 27, 06
* MODEL FORMAT: PSpice
*       in   out   
*node:  1    3    
*
X1    1   2    ESD5B50T1G-Z 
X2    3   2    ESD5B50T1G-Z 
*
.ENDS ESD5B50T1G 
*

.SUBCKT ESD5B50T1G-Z 7 1
* Model generated on Oct 27, 06
* MODEL FORMAT: PSpice
*     anode cathode
*node: 7      1
*    Forward Section
D1 2 1 MDD1
.MODEL MDD1 D IS=3.10113e-13 N=1 XTI=1 RS=0.2
+ CJO=6.24e-11 TT=1e-08
*    Leakage Current
R 1 2 MDR 208333
.MODEL MDR RES TC1=0 TC2=0
*    Breakdown
RZ 2 3 0.751274 
D3 4 3 MDD3
.MODEL MDD3 D IS=2.5e-15 N=0.5 
EV1 1 4 6 8 1
IBV 0 6 0.001
RBV 6 0 MDRBV 6380
.MODEL MDRBV RES TC1=0
D4 8 0 MDD3
L 7 2 1e-15
IT 0 8 0.001
.ENDS ESD5B50T1G-Z 

.SUBCKT nzl6v8axv3t1 2 1
* Model generated on Jul  3, 03
* MODEL FORMAT: PSpice
*     anode cathode
*node: 2      1
*    Forward Section
D1 2 1 MD1
.MODEL MD1 D IS=1.70021e-14 N=1 XTI=1 RS=0.2
+ CJO=1.8e-11 TT=5e-09
*    Leakage Current
R 1 2 MDR 1.5e+08	
.MODEL MDR RES TC1=0 TC2=0
*    Breakdown
RZ 2 3 1.22364
IZG 4 3 0.24
R4 4 3 300
D3 3 4 MD3
.MODEL MD3 D IS=2.5e-12 N=0.238821 XTI=0 EG=0.1
D2 5 4 MD2
.MODEL MD2 D IS=2.5e-12 N=0.919495 XTI=0 EG=0.1
EV1 1 5 6 0 1
IBV 0 6 0.001
RBV 6 0 MDRBV 6441.09
.MODEL MDRBV RES TC1=0
*-- PSpice DIODE MODEL DEFAULT PARAMETER
*  VALUES ARE ASSUMED
*IS=1E-14 RS=0 N=1 TT=0 CJO=0
*VJ=1 M=0.5 EG=1.11 XTI=3 FC=0.5
*KF=0 AF=1 BV=inf IBV=1e-3 TNOM=27
.ENDS nzl6v8axv3t1

.SUBCKT esd7c3_3dt5g 7 1
* Model generated on May  3, 07
* MODEL FORMAT: PSpice
*     anode cathode
*node: 7      1
*    Forward Section
D1 2 1 MDD1
.MODEL MDD1 D IS=6.69609e-17 N=1 XTI=1 RS=0.598
+ CJO=1.2e-11 TT=1e-09
*    Leakage Current
R 1 2 MDR 2.75e+08
.MODEL MDR RES TC1=-0.00464381 TC2=0
*    Breakdown
RZ 2 3 2.63079 
D3 4 3 MDD3
.MODEL MDD3 D IS=2.5e-15 N=0.5 
EV1 1 4 6 8 1
IBV 0 6 0.001
RBV 6 0 MDRBV 5640
.MODEL MDRBV RES TC1=0
D4 8 0 MDD3
L 7 2 1e-15
IT 0 8 0.001
.ENDS esd7c3_3dt5g

.SUBCKT esd9x12st5g 7 1
* Model generated on May  6, 06
* MODEL FORMAT: PSpice
*     anode cathode
*node: 7      1
*    Forward Section
D1 2 1 MDD1
.MODEL MDD1 D IS=1.24503e-16 N=1 XTI=1 RS=0.5
+ CJO=3e-11 TT=9e-10
*    Leakage Current
R 1 2 MDR 1.09091e+10
.MODEL MDR RES TC1=-0.00473684 TC2=0
*    Breakdown
RZ 2 3 1.45557 
D3 4 3 MDD3
.MODEL MDD3 D IS=2.5e-15 N=0.5 
EV1 1 4 6 8 1
IBV 0 6 0.001
RBV 6 0 MDRBV 15000
.MODEL MDRBV RES TC1=0.0007
D4 8 0 MDD3
L 7 2 1e-15
IT 0 8 0.001
.ENDS esd9x12st5g

.SUBCKT nup4103fc-e 7 1
* Model generated on Jul  5, 03
* MODEL FORMAT: PSpice
*     anode cathode
*node: 7      1
*    Forward Section
D1 2 1 MDD1
.MODEL MDD1 D IS=3.82624e-16 N=1 XTI=1 RS=0.2
+ CJO=4e-11 TT=5e-09
*    Leakage Current
R 1 2 MDR 5.5e+09
.MODEL MDR RES TC1=0 TC2=0
*    Breakdown
RZ 2 3 0.0180001 
D3 4 3 MDD3
.MODEL MDD3 D IS=2.5e-15 N=0.5 
EV1 1 4 6 8 1
IBV 0 6 0.001
RBV 6 0 MDRBV 7000
.MODEL MDRBV RES TC1=0
D4 8 0 MDD3
L 7 2 1e-15
IT 0 8 0.001
.ENDS nup4103fc-e

.SUBCKT mmqa20vt1 2 1
* Model generated on Jan 25, 07
* MODEL FORMAT: PSpice
*     anode cathode
*node: 2      1
*    Forward Section
D1 2 1 MD1
.MODEL MD1 D IS=6.57933e-10 N=1.84949 XTI=1 RS=1
+ CJO=7.5e-11 TT=2e-09
*    Leakage Current
R 1 2 MDR 5e+08	
.MODEL MDR RES TC1=0 TC2=0
*    Breakdown
RZ 2 3 5.54342
IZG 4 3 0.84
R4 4 3 500
D3 3 4 MD3
.MODEL MD3 D IS=2.5e-12 N=0.389391 XTI=0 EG=0.1
D2 5 4 MD2
.MODEL MD2 D IS=2.5e-12 N=1.72066 XTI=0 EG=0.1
EV1 1 5 6 0 1
IBV 0 6 0.001
RBV 6 0 MDRBV 19228.7
.MODEL MDRBV RES TC1=0.00104011
*-- PSpice DIODE MODEL DEFAULT PARAMETER
*  VALUES ARE ASSUMED
*IS=1E-14 RS=0 N=1 TT=0 CJO=0
*VJ=1 M=0.5 EG=1.11 XTI=3 FC=0.5
*KF=0 AF=1 BV=inf IBV=1e-3 TNOM=27
.ENDS mmqa20vt1

.SUBCKT nzl7v5axv3t1 2 1
* Model generated on Jul  3, 03
* MODEL FORMAT: PSpice
*     anode cathode
*node: 2      1
*    Forward Section
D1 2 1 MD1
.MODEL MD1 D IS=1.70021e-14 N=1 XTI=1 RS=0.2
+ CJO=1.8e-11 TT=5e-09
*    Leakage Current
R 1 2 MDR 1.66667e+08	
.MODEL MDR RES TC1=0 TC2=0
*    Breakdown
RZ 2 3 1.22364
IZG 4 3 0.24
R4 4 3 300
D3 3 4 MD3
.MODEL MD3 D IS=2.5e-12 N=0.238821 XTI=0 EG=0.1
D2 5 4 MD2
.MODEL MD2 D IS=2.5e-12 N=0.919495 XTI=0 EG=0.1
EV1 1 5 6 0 1
IBV 0 6 0.001
RBV 6 0 MDRBV 7141.09
.MODEL MDRBV RES TC1=0
*-- PSpice DIODE MODEL DEFAULT PARAMETER
*  VALUES ARE ASSUMED
*IS=1E-14 RS=0 N=1 TT=0 CJO=0
*VJ=1 M=0.5 EG=1.11 XTI=3 FC=0.5
*KF=0 AF=1 BV=inf IBV=1e-3 TNOM=27
.ENDS nzl7v5axv3t1

.SUBCKT esd9c5_0st5g 7 1
* Model generated on May  3, 07
* MODEL FORMAT: PSpice
*     anode cathode
*node: 7      1
*    Forward Section
D1 2 1 MDD1
.MODEL MDD1 D IS=2.42832e-17 N=1 XTI=1 RS=0.767
+ CJO=6e-12 TT=1e-09
*    Leakage Current
R 1 2 MDR 4.54545e+09
.MODEL MDR RES TC1=-0.00386126 TC2=0
*    Breakdown
RZ 2 3 3.51079 
D3 4 3 MDD3
.MODEL MDD3 D IS=2.5e-15 N=0.5 
EV1 1 4 6 8 1
IBV 0 6 0.001
RBV 6 0 MDRBV 11900
.MODEL MDRBV RES TC1=0
D4 8 0 MDD3
L 7 2 1e-15
IT 0 8 0.001
.ENDS esd9c5_0st5g

.SUBCKT NUP4201MR6 1 2 3 4 5 6
*******************************************
* Model Generated by ON Discrete Eval Lab *
*    Copyright(c) ON Semiconductor        *
*         All Rights Reserved             *
*      UNPUBLISHED LICENSED SOFTWARE      *
*     Contains Proprietary Information    *
*                                         *
*   Commercial Use or Resale Restricted   *
*******************************************
* Model generated on May 26, 2004
* MODEL FORMAT: PSpice
*     pin1  pin2   pin3   pin4   pin5   pin6
*node:  1     2      3      4      5     6
*
XD1  9  5  NUP4201MR6-N
XD2 11  5  NUP4201MR6-N
XD3 14  5  NUP4201MR6-N
XD4 16  5  NUP4201MR6-N
*
XD5  2 17  NUP4201MR6-P
XD6  2 15  NUP4201MR6-P
XD7  2 12  NUP4201MR6-P
XD8  2 10  NUP4201MR6-P
*
XDT  2 13  NUP4201MR6-T
*
L1   4  9  2.7N
L2   6 16  2.7N
L3   4 10  2.7N
L4   3 12  2.7N
L5   5 13  1.4N
L6   1 15  2.7N
L7   6 17  2.7N
L8   1 14  6.2N
L9   3 11  6.2N
*
.ENDS NUP4201MR6
*
.SUBCKT nup4201mr6-n 2 1
* Model generated on Jun 18, 02
* MODEL FORMAT: PSpice
*     anode cathode
*node: 2      1
*    Forward Section
D1 2 1 MD1
.MODEL MD1 D IS=1.70021e-15 N=1 XTI=1 RS=0.468
+ CJO=1.5e-12 TT=1e-08
*    Leakage Current
R 1 2 MDR 7.2e+09	
.MODEL MDR RES TC1=0 TC2=0
*    Breakdown
RZ 2 3 8.76289
IZG 4 3 1.2
R4 4 3 500
D3 3 4 MD3
.MODEL MD3 D IS=2.5e-12 N=4.09521e-05 XTI=0 EG=0.1
D2 5 4 MD2
.MODEL MD2 D IS=2.5e-12 N=0.000478944 XTI=0 EG=0.1
EV1 1 5 6 0 1
IBV 0 6 0.001
RBV 6 0 MDRBV 470000
.MODEL MDRBV RES TC1=0
*-- PSpice DIODE MODEL DEFAULT PARAMETER
*  VALUES ARE ASSUMED
*IS=1E-14 RS=0 N=1 TT=0 CJO=0
*VJ=1 M=0.5 EG=1.11 XTI=3 FC=0.5
*KF=0 AF=1 BV=inf IBV=1e-3 TNOM=27
.ENDS nup4201mr6-n
*
.SUBCKT nup4201mr6-p 2 1
* Model generated on Jun 18, 02
* MODEL FORMAT: PSpice
*     anode cathode
*node: 2      1
*    Forward Section
D1 2 1 MD1
.MODEL MD1 D IS=2.06333e-15 N=1 XTI=1 RS=0.397
+ CJO=2.5e-12 TT=1e-08
*    Leakage Current
R 1 2 MDR 3.6e+10	
.MODEL MDR RES TC1=0 TC2=0
*    Breakdown
RZ 2 3 8.76289
IZG 4 3 1.2
R4 4 3 500
D3 3 4 MD3
.MODEL MD3 D IS=2.5e-12 N=4.09521e-05 XTI=0 EG=0.1
D2 5 4 MD2
.MODEL MD2 D IS=2.5e-12 N=0.000478944 XTI=0 EG=0.1
EV1 1 5 6 0 1
IBV 0 6 0.001
RBV 6 0 MDRBV 425000
.MODEL MDRBV RES TC1=0
*-- PSpice DIODE MODEL DEFAULT PARAMETER
*  VALUES ARE ASSUMED
*IS=1E-14 RS=0 N=1 TT=0 CJO=0
*VJ=1 M=0.5 EG=1.11 XTI=3 FC=0.5
*KF=0 AF=1 BV=inf IBV=1e-3 TNOM=27
.ENDS nup4201mr6-p
*
.SUBCKT nup4201mr6-t 7 1
* Model generated on Mar  6, 02
* MODEL FORMAT: PSpice
*     anode cathode
*node: 7      1
*    Forward Section
D1 2 1 MDD1
.MODEL MDD1 D IS=1.37284e-15 N=1 XTI=1 RS=0.5
+ CJO=3.4e-10 TT=1e-08
*    Leakage Current
R 1 2 MDR 5e+07
.MODEL MDR RES TC1=0 TC2=0
*    Breakdown
RZ 2 3 0.458105 
D3 4 3 MDD3
.MODEL MDD3 D IS=2.5e-15 N=0.5 
EV1 1 4 6 8 1
IBV 0 6 0.001
RBV 6 0 MDRBV 7300
.MODEL MDRBV RES TC1=0
D4 8 0 MDD3
L 7 2 1e-15
IT 0 8 0.001
.ENDS nup4201mr6-t

.SUBCKT sms05t1 7 1
* Model generated on Mar 15, 01
* MODEL FORMAT: SPICE3
*     anode cathode
*node: 7      1
*    Forward Section
D1 2 1 MDD1
.MODEL MDD1 D IS=3.01035e-25 N=1 XTI=1 RS=0.2
+ CJO=2.8e-10 TT=1e-08 T_ABS=25
*    Leakage Current
R 1 2 580000 MDR
.MODEL MDR R TC1=0 TC2=0
*    Breakdown
RZ 2 3 0.225054 
D3 4 3 MDD3
.MODEL MDD3 D IS=2.5e-15 N=0.5 T_ABS=25
EV1 1 4 6 8 1
IBV 0 6 0.001
RBV 6 0 6500 MDRBV
.MODEL MDRBV R TC1=0
D4 8 0 MDD3
L 7 2 1e-10
IT 0 8 0.001
.ENDS sms05t1

.SUBCKT uesd12st5g 7 1
* Model generated on Apr  1, 06
* MODEL FORMAT: PSpice
*     anode cathode
*node: 7      1
*    Forward Section
D1 2 1 MDD1
.MODEL MDD1 D IS=1.79014e-16 N=1 XTI=1 RS=0.5
+ CJO=5.5e-11 TT=1e-09
*    Leakage Current
R 1 2 MDR 2e+09
.MODEL MDR RES TC1=0 TC2=0
*    Breakdown
RZ 2 3 1.86833 
D3 4 3 MDD3
.MODEL MDD3 D IS=2.5e-15 N=0.5 
EV1 1 4 6 8 1
IBV 0 6 0.001
RBV 6 0 MDRBV 13500
.MODEL MDRBV RES TC1=0.00026
D4 8 0 MDD3
L 7 2 1e-15
IT 0 8 0.001
.ENDS uesd12st5g

.SUBCKT uesd3_3st5g 7 1
* Model generated on Apr  1, 06
* MODEL FORMAT: PSpice
*     anode cathode
*node: 7      1
*    Forward Section
D1 2 1 MDD1
.MODEL MDD1 D IS=4.28153e-15 N=1 XTI=1 RS=0.5
+ CJO=9e-11 TT=1e-09
*    Leakage Current
R 1 2 MDR 7.33333e+06
.MODEL MDR RES TC1=0 TC2=0
*    Breakdown
RZ 2 3 0.555821 
D3 4 3 MDD3
.MODEL MDD3 D IS=2.5e-15 N=0.5 
EV1 1 4 6 8 1
IBV 0 6 0.001
RBV 6 0 MDRBV 5000
.MODEL MDRBV RES TC1=0.000624
D4 8 0 MDD3
L 7 2 1e-15
IT 0 8 0.001
.ENDS uesd3_3st5g
