*** On Semi EMI/RFI Filters

.SUBCKT nuf2116mn 1 2 3 4 5
**************************************
*      Model Generated by MODPEX     *
*Copyright(c) Symmetry Design Systems*
*         All Rights Reserved        *
*    UNPUBLISHED LICENSED SOFTWARE   *
*   Contains Proprietary Information *
*      Which is The Property of      *
*     SYMMETRY OR ITS LICENSORS      *
*Commercial Use or Resale Restricted *
*   by Symmetry License Agreement    *
**************************************
* Model generated on Apr  7, 06
* MODEL FORMAT: PSpice
*Filter 1
*pins		1	gnd	8
*Nodes	1	5	2
X1	6	9	nuf2116mnzener
X2	11	9	nuf2116mnzener
X3	8	10	nuf2116mnzener
X4	11	10	nuf2116mnzener
R1	6	7	64	TC=.000494
L1	1	6	1.09n
L2	7	8	.095n
L3	8	2	1.09n
L4	11	5	15p
C1	6	8	1.7p
C2	6	11	1.8p
C3	8	11	1.8p
C4	11	5	.34p
*Filter 2
*pins		4	gnd	5
*Nodes	3	5	4
X5	12	15	nuf2116mnzener
X6	17	15	nuf2116mnzener
X7	14	16	nuf2116mnzener
X8	17	16	nuf2116mnzener
R2	12	13	64	TC=.000494
L5	3	12	1.09n
L6	13	14	.095n
L7	14	4	1.09n
L8	17	5	15p
C5	12	14	1.7p
C6	12	17	1.8p
C7	14	17	1.8p
C8	17	5	.34p
*
.ENDS nuf2116mn
*
.SUBCKT nuf2116mnzener 2 1
**************************************
*      Model Generated by MODPEX     *
*Copyright(c) Symmetry Design Systems*
*         All Rights Reserved        *
*    UNPUBLISHED LICENSED SOFTWARE   *
*   Contains Proprietary Information *
*      Which is The Property of      *
*     SYMMETRY OR ITS LICENSORS      *
*Commercial Use or Resale Restricted *
*   by Symmetry License Agreement    *
**************************************
* Model generated on Apr  7, 06
* MODEL FORMAT: PSpice
*     anode cathode
*node: 2      1
*    Forward Section
D1 2 1 MD1
.MODEL MD1 D IS=1.70021e-15 N=1 XTI=1 RS=0.025
+ CJO=1e-10 TT=1e-09
*    Leakage Current
R 1 2 MDR 5.65e+08	
.MODEL MDR RES TC1=0 TC2=0
*    Breakdown
RZ 2 3 5.55216
IZG 4 3 0.24
R4 4 3 500
D3 3 4 MD3
.MODEL MD3 D IS=2.5e-12 N=0.031419 XTI=0 EG=0.1
D2 5 4 MD2
.MODEL MD2 D IS=2.5e-12 N=0.172065 XTI=0 EG=0.1
EV1 1 5 6 0 1
IBV 0 6 0.001
RBV 6 0 MDRBV 14926.9
.MODEL MDRBV RES TC1=5.02447e-05
*-- PSpice DIODE MODEL DEFAULT PARAMETER
*  VALUES ARE ASSUMED
*IS=1E-14 RS=0 N=1 TT=0 CJO=0
*VJ=1 M=0.5 EG=1.11 XTI=3 FC=0.5
*KF=0 AF=1 BV=inf IBV=1e-3 TNOM=27
.ENDS nuf2116mnzener

.SUBCKT nuf2450mu 1 8 16
*******************************************
* Model Generated by ON Discrete Eval Lab *
*    Copyright(c) ON Semiconductor        *
*         All Rights Reserved             *
*      UNPUBLISHED LICENSED SOFTWARE      *
*     Contains Proprietary Information    *
*                                         *
*   Commercial Use or Resale Restricted   *
*******************************************
* Model generated on Dec. 7, 06
* MODEL FORMAT: PSpice
*       A    C   Gnd
*node:  1    2    16
*
X1    17   2    nuf2450mu_zener
X2    12   2    nuf2450mu_zener
X3    13   7    nuf2450mu_zener
X4    18   7    nuf2450mu_zener
L1    2    1    .33N
L2    4    3    .66N
L3    4    5    .1N
L4    6    5    .66N
L5    7    8    .33N
L6	16   11   22.6P
R1	9    5    .3 TC=0.000538 
R2	4    10   .3 TC=0.000538 
R3	3    2    .45 TC=0.000538 
R4	7    6    .45 TC=0.000538 
R5	14   4    .3 TC=0.000538 
R6	15   5    .3 TC=0.000538 
R7	11   12   .556 TC=0.000538 
R8	11   13   .556 TC=0.000538 
R9	17   12   6.87 TC=0.000538 
R10	12   19   7.74 TC=0.000538 
R11	13   20   7.74 TC=0.000538 
R12	13   18   6.87 TC=0.000538 
C1	2    9    .17P
C2	7    10   .17P
C3	11   15   1.13P
C4	11   14   1.13P
C5	19   2    .00006P
C6	20   7    .00006P
*
.ENDS nuf2450mu
*
.SUBCKT nuf2450mu_zener 7 1
**************************************
*      Model Generated by MODPEX     *
*Copyright(c) Symmetry Design Systems*
*         All Rights Reserved        *
*    UNPUBLISHED LICENSED SOFTWARE   *
*   Contains Proprietary Information *
*      Which is The Property of      *
*     SYMMETRY OR ITS LICENSORS      *
*Commercial Use or Resale Restricted *
*   by Symmetry License Agreement    *
**************************************
* Model generated on Dec. 7, 06
* MODEL FORMAT: PSpice
*     anode cathode
*node: 7      1
*    Forward Section
D1 2 1 MDD1
.MODEL MDD1 D IS=8.65095e-16 N=1 XTI=1 RS=1
+ CJO=9e-11 TT=1e-08
*    Leakage Current
R 1 2 MDR 5.68966e+08
.MODEL MDR RES TC1=0 TC2=0
*    Breakdown
RZ 2 3 0.0652053 
D3 4 3 MDD3
.MODEL MDD3 D IS=2.5e-15 N=0.5 
EV1 1 4 6 8 1
IBV 0 6 0.001
RBV 6 0 MDRBV 6600
.MODEL MDRBV RES TC1=0
D4 8 0 MDD3
L 7 2 1e-15
IT 0 8 0.001
.ENDS nuf2450mu_zener

.SUBCKT nuf4220mn 1 8 16
*******************************************
* Model Generated by ON Discrete Eval Lab *
*    Copyright(c) ON Semiconductor        *
*         All Rights Reserved             *
*      UNPUBLISHED LICENSED SOFTWARE      *
*     Contains Proprietary Information    *
*                                         *
*   Commercial Use or Resale Restricted   *
*******************************************
* Model generated on Oct. 13, 06
* MODEL FORMAT: PSpice
*       A    C   Gnd
*node:  1    2    16
*
X1    17   2    nuf4220mn_zener
X2    12   2    nuf4220mn_zener
X3    13   7    nuf4220mn_zener
X4    18   7    nuf4220mn_zener
L1    2    1    .8N
L2    4    3    1.6N
L3    4    5    .2N
L4    6    5    1.6N
L5    7    8    .8N
L6	16   11   22.6P
R1	9    5    .3 TC=0.000538 
R2	4    10   .3 TC=0.000538 
R3	3    2    .45 TC=0.000538 
R4	7    6    .45 TC=0.000538 
R5	14   4    .3 TC=0.000538 
R6	15   5    .3 TC=0.000538 
R7	11   12   .556 TC=0.000538 
R8	11   13   .556 TC=0.000538 
R9	17   12   6.87 TC=0.000538 
R10	12   19   7.74 TC=0.000538 
R11	13   20   7.74 TC=0.000538 
R12	13   18   6.87 TC=0.000538 
C1	2    9    .17P
C2	7    10   .17P
C3	11   15   1.13P
C4	11   14   1.13P
C5	19   2    .00006P
C6	20   7    .00006P
*
.ENDS nuf4220mn
*
.SUBCKT nuf4220mn_zener 7 1
**************************************
*      Model Generated by MODPEX     *
*Copyright(c) Symmetry Design Systems*
*         All Rights Reserved        *
*    UNPUBLISHED LICENSED SOFTWARE   *
*   Contains Proprietary Information *
*      Which is The Property of      *
*     SYMMETRY OR ITS LICENSORS      *
*Commercial Use or Resale Restricted *
*   by Symmetry License Agreement    *
**************************************
* Model generated on Oct 13, 06
* MODEL FORMAT: PSpice
*     anode cathode
*node: 7      1
*    Forward Section
D1 2 1 MDD1
.MODEL MDD1 D IS=8.65095e-16 N=1 XTI=1 RS=0.7
+ CJO=8.5e-11 TT=1e-08
*    Leakage Current
R 1 2 MDR 5.68966e+08
.MODEL MDR RES TC1=0 TC2=0
*    Breakdown
RZ 2 3 0.0652053 
D3 4 3 MDD3
.MODEL MDD3 D IS=2.5e-15 N=0.5 
EV1 1 4 6 8 1
IBV 0 6 0.001
RBV 6 0 MDRBV 6600
.MODEL MDRBV RES TC1=0
D4 8 0 MDD3
L 7 2 1e-15
IT 0 8 0.001
.ENDS nuf4220mn_zener

.SUBCKT nuf2114mn 1 2 3 4 5
**************************************
*      Model Generated by MODPEX     *
*Copyright(c) Symmetry Design Systems*
*         All Rights Reserved        *
*    UNPUBLISHED LICENSED SOFTWARE   *
*   Contains Proprietary Information *
*      Which is The Property of      *
*     SYMMETRY OR ITS LICENSORS      *
*Commercial Use or Resale Restricted *
*   by Symmetry License Agreement    *
**************************************
* Model generated on Apr  7, 06
* MODEL FORMAT: PSpice
*Filter 1
*pins		1	gnd	8
*Nodes	1	5	2
X1	6	9	nuf2114mnzener
X2	11	9	nuf2114mnzener
X3	8	10	nuf2114mnzener
X4	11	10	nuf2114mnzener
R1	6	7	8.3	TC=.000424
L1	1	6	1.09n
L2	7	8	1n
L3	8	2	1.09n
L4	11	5	15p
C1	6	8	1p
C2	6	11	.44p
C3	8	11	.44p
C4	11	5	.32p
*Filter 2
*pins		4	gnd	5
*Nodes	3	5	4
X5	12	15	nuf2114mnzener
X6	17	15	nuf2114mnzener
X7	14	16	nuf2114mnzener
X8	17	16	nuf2114mnzener
R2	12	13	8.3	TC=.000424
L5	3	12	1.09n
L6	13	14	1n
L7	14	4	1.09n
L8	17	5	15p
C5	12	14	1p
C6	12	17	.44p
C7	14	17	.44p
C8	17	5	.32p
*
.ENDS nuf2114mn
*
.SUBCKT nuf2114mnzener 2 1
**************************************
*      Model Generated by MODPEX     *
*Copyright(c) Symmetry Design Systems*
*         All Rights Reserved        *
*    UNPUBLISHED LICENSED SOFTWARE   *
*   Contains Proprietary Information *
*      Which is The Property of      *
*     SYMMETRY OR ITS LICENSORS      *
*Commercial Use or Resale Restricted *
*   by Symmetry License Agreement    *
**************************************
* Model generated on Apr  7, 06
* MODEL FORMAT: PSpice
*     anode cathode
*node: 2      1
*    Forward Section
D1 2 1 MD1
.MODEL MD1 D IS=1.70021e-15 N=1 XTI=1 RS=0.35
+ CJO=1.2e-10 TT=1e-09
*    Leakage Current
R 1 2 MDR 5.65e+08	
.MODEL MDR RES TC1=0 TC2=0
*    Breakdown
RZ 2 3 5.55216
IZG 4 3 0.24
R4 4 3 500
D3 3 4 MD3
.MODEL MD3 D IS=2.5e-12 N=0.031419 XTI=0 EG=0.1
D2 5 4 MD2
.MODEL MD2 D IS=2.5e-12 N=0.172065 XTI=0 EG=0.1
EV1 1 5 6 0 1
IBV 0 6 0.001
RBV 6 0 MDRBV 14926.9
.MODEL MDRBV RES TC1=5.02447e-05
*-- PSpice DIODE MODEL DEFAULT PARAMETER
*  VALUES ARE ASSUMED
*IS=1E-14 RS=0 N=1 TT=0 CJO=0
*VJ=1 M=0.5 EG=1.11 XTI=3 FC=0.5
*KF=0 AF=1 BV=inf IBV=1e-3 TNOM=27
.ENDS nuf2114mnzener

.SUBCKT STF202-22 1 2 3 4 5 6
**************************************
*      Model Generated by CZ Lab     *
*   Copyright(c) ON Semiconductor    *
*         All Rights Reserved        *
*    UNPUBLISHED LICENSED SOFTWARE   *
*   Contains Proprietary Information *
*                                    *
*Commercial Use or Resale Restricted *
*                                    *
**************************************
* Model generated on Jan 17, 2002
* MODEL FORMAT: PSPICE
*     vbus d(in1) d(in2) d(out2) d(out1) gnd
*node:  1     2      3      4       5     6
DX_D1  12  7  DTVS
DX_D2  12  11 DTVS
DX_D3  12  8  DTVS
DX_D4  12  10 DTVS
DX_D5  12  9  DTVS
*
C1  11  12  47PF
C2  10  12  47PF
*
RPU  7  9  1.5K
RS1  8  11  22
RS2  9  10  22
*
L1  1  7  0.1NH
L2  2  8  0.1NH
L3  3  9  0.1NH
L4  4  10  0.1NH
L5  5  11  0.1NH
L6  6  12  0.55NH
*
.MODEL DTVS D(IS=880.5E-18 RS=.25 IKF=0 N=1 XTI=3 EG=1.11 
+ CJO=20P M=.5516 VJ=.75 FC=.5 ISR=1.859N NR=2 BV=7.0 IBV=1M 
+ NBV=1.6989 IBVL=1.9556M NBVL=14.976 TBV1=-21.277U)
.ENDS STF202-22

.SUBCKT nuf8402mnt4g 1 2 3
*******************************************
* Model Generated by ON Discrete Eval Lab *
*    Copyright(c) ON Semiconductor        *
*         All Rights Reserved             *
*      UNPUBLISHED LICENSED SOFTWARE      *
*     Contains Proprietary Information    *
*                                         *
*   Commercial Use or Resale Restricted   *
*******************************************
* Model generated on Feb 18, 05
* MODEL FORMAT: PSpice
*       Line1  Line2  Gnd
*node:    1      2     3
*
X1    3    1    nuf8402mnt4g-cap
X2    3    2    nuf8402mnt4g-cap
R1    1    2    100  TC=0.000538
*
.ENDS nuf8402mnt4g
*
.SUBCKT nuf8402mnt4g-cap 7 1
**************************************
*      Model Generated by MODPEX     *
*Copyright(c) Symmetry Design Systems*
*         All Rights Reserved        *
*    UNPUBLISHED LICENSED SOFTWARE   *
*   Contains Proprietary Information *
*      Which is The Property of      *
*     SYMMETRY OR ITS LICENSORS      *
*Commercial Use or Resale Restricted *
*   by Symmetry License Agreement    *
**************************************
* Model generated on Feb 18, 05
* MODEL FORMAT: PSpice
*     anode cathode
*node: 7      1
*    Forward Section
D1 2 1 MDD1
.MODEL MDD1 D IS=1.17809e-12 N=1 XTI=1 RS=0.5
+ CJO=1.7e-11 TT=5e-09
*    Leakage Current
R 1 2 MDR 4.5e+07
.MODEL MDR RES TC1=0 TC2=0
*    Breakdown
RZ 2 3 0.0572053 
D3 4 3 MDD3
.MODEL MDD3 D IS=2.5e-15 N=0.5 
EV1 1 4 6 8 1
IBV 0 6 0.001
RBV 6 0 MDRBV 7000
.MODEL MDRBV RES TC1=0.000409
D4 8 0 MDD3
L 7 2 8.8e-10
IT 0 8 0.001
.ENDS nuf8402mnt4g-cap

.SUBCKT nuf2015w1 1 2 3 4 5 6
*******************************************
* Model Generated by ON Discrete Eval Lab *
*    Copyright(c) ON Semiconductor        *
*         All Rights Reserved             *
*      UNPUBLISHED LICENSED SOFTWARE      *
*     Contains Proprietary Information    *
*                                         *
*   Commercial Use or Resale Restricted   *
*******************************************
* Model generated on Mar 16, 05
* MODEL FORMAT: PSpice
*        Pin1 Pin2 Pin3 Pin4 Pin5 Pin6
*node:    1    2    3    4    5    6
*
X1    7    1    nuf2015w1-diode
X2    7    6    nuf2015w1-diode
X3    7    3    nuf2015w1-diode
X4    7    4    nuf2015w1-diode
X5    7    5    nuf2015w1-diode
RS    1    6    15 TC=0.000593
RUP   5    6    1530 TC=0.000581
L1    2    7    300p
*
.ENDS nuf2015w1
*
.SUBCKT nuf2015w1-diode 7 1
**************************************
*      Model Generated by MODPEX     *
*Copyright(c) Symmetry Design Systems*
*         All Rights Reserved        *
*    UNPUBLISHED LICENSED SOFTWARE   *
*   Contains Proprietary Information *
*      Which is The Property of      *
*     SYMMETRY OR ITS LICENSORS      *
*Commercial Use or Resale Restricted *
*   by Symmetry License Agreement    *
**************************************
* Model generated on Mar 15, 05
* MODEL FORMAT: PSpice
*     anode cathode
*node: 7      1
*    Forward Section
D1 2 1 MDD1
.MODEL MDD1 D IS=1.17809e-12 N=1 XTI=1 RS=0.5
+ CJO=2.1e-11 TT=5e-09
*    Leakage Current
R 1 2 MDR 3.3e+08
.MODEL MDR RES TC1=0 TC2=0
*    Breakdown
RZ 2 3 0.0612053 
D3 4 3 MDD3
.MODEL MDD3 D IS=2.5e-15 N=0.5 
EV1 1 4 6 8 1
IBV 0 6 0.001
RBV 6 0 MDRBV 6800
.MODEL MDRBV RES TC1=0.000409
D4 8 0 MDD3
L 7 2 900p
IT 0 8 0.001
.ENDS nuf2015w1-diode

.SUBCKT nuf3101fct1g 1 2 3 4 5 6 7 8
*******************************************
* Model Generated by ON Discrete Eval Lab *
*    Copyright(c) ON Semiconductor        *
*         All Rights Reserved             *
*      UNPUBLISHED LICENSED SOFTWARE      *
*     Contains Proprietary Information    *
*                                         *
*   Commercial Use or Resale Restricted   *
*******************************************
* Model generated on Aug 5, 04
* MODEL FORMAT: PSpice
*       A3   B3   C3   A2   B2   C2   B1   C1
*node:  1    2    3    4    5    6    7    8
*
X1    5    6    nuf3101fct1g-cap
X2    5    1    nuf3101fct1g-cap
X3    5    2    nuf3101fct1g-cap
X4    5    3    nuf3101fct1g-cap
X5    5    8    nuf3101fct1g-cap
X6    5    7    nuf3101fct1g-cap
X7    5    4    nuf3101fct1g-cap
R1    1    4    100  TC=0.000585
R2    2    7    47  TC=0.000585
R3    3    8    100  TC=0.000585
*
.ENDS nuf3101fct1g
*
.SUBCKT nuf3101fct1g-cap 7 1
**************************************
*      Model Generated by MODPEX     *
*Copyright(c) Symmetry Design Systems*
*         All Rights Reserved        *
*    UNPUBLISHED LICENSED SOFTWARE   *
*   Contains Proprietary Information *
*      Which is The Property of      *
*     SYMMETRY OR ITS LICENSORS      *
*Commercial Use or Resale Restricted *
*   by Symmetry License Agreement    *
**************************************
* Model generated on Aug  5, 04
* MODEL FORMAT: PSpice
*     anode cathode
*node: 7      1
*    Forward Section
D1 2 1 MDD1
.MODEL MDD1 D IS=1.17809e-12 N=1 XTI=1 RS=0.5
+ CJO=1.8e-11 TT=5e-09
*    Leakage Current
R 1 2 MDR 5.3e+07
.MODEL MDR RES TC1=0 TC2=0
*    Breakdown
RZ 2 3 0.0572053 
D3 4 3 MDD3
.MODEL MDD3 D IS=2.5e-15 N=0.5 
EV1 1 4 6 8 1
IBV 0 6 0.001
RBV 6 0 MDRBV 7000
.MODEL MDRBV RES TC1=0.000409
D4 8 0 MDD3
L 7 2 1.1e-09
IT 0 8 0.001
.ENDS nuf3101fc-cap

.SUBCKT nuf8401mnt4g 1 2 3
*******************************************
* Model Generated by ON Discrete Eval Lab *
*    Copyright(c) ON Semiconductor        *
*         All Rights Reserved             *
*      UNPUBLISHED LICENSED SOFTWARE      *
*     Contains Proprietary Information    *
*                                         *
*   Commercial Use or Resale Restricted   *
*******************************************
* Model generated on Feb 18, 05
* MODEL FORMAT: PSpice
*       Line1  Line2  Gnd
*node:    1      2     3
*
X1    3    1    nuf8401mnt4g-cap
X2    3    2    nuf8401mnt4g-cap
R1    1    2    100  TC=0.000538
*
.ENDS nuf8401mnt4g
*
.SUBCKT nuf8401mnt4g-cap 7 1
**************************************
*      Model Generated by MODPEX     *
*Copyright(c) Symmetry Design Systems*
*         All Rights Reserved        *
*    UNPUBLISHED LICENSED SOFTWARE   *
*   Contains Proprietary Information *
*      Which is The Property of      *
*     SYMMETRY OR ITS LICENSORS      *
*Commercial Use or Resale Restricted *
*   by Symmetry License Agreement    *
**************************************
* Model generated on Feb 18, 05
* MODEL FORMAT: PSpice
*     anode cathode
*node: 7      1
*    Forward Section
D1 2 1 MDD1
.MODEL MDD1 D IS=1.17809e-12 N=1 XTI=1 RS=0.5
+ CJO=1.2e-11 TT=5e-09
*    Leakage Current
R 1 2 MDR 4.5e+06
.MODEL MDR RES TC1=0 TC2=0
*    Breakdown
RZ 2 3 0.0572053 
D3 4 3 MDD3
.MODEL MDD3 D IS=2.5e-15 N=0.5 
EV1 1 4 6 8 1
IBV 0 6 0.001
RBV 6 0 MDRBV 7000
.MODEL MDRBV RES TC1=0.000409
D4 8 0 MDD3
L 7 2 5.3e-10
IT 0 8 0.001
.ENDS nuf8401mnt4g-cap

.SUBCKT nuf9002fc 1 2 3
*******************************************
* Model Generated by ON Discrete Eval Lab *
*    Copyright(c) ON Semiconductor        *
*         All Rights Reserved             *
*      UNPUBLISHED LICENSED SOFTWARE      *
*     Contains Proprietary Information    *
*                                         *
*   Commercial Use or Resale Restricted   *
*******************************************
* Model generated on Feb 21, 05
* MODEL FORMAT: PSpice
*       Line1  Line2  Gnd
*node:    1      2     3
*
X1    3    1    nuf9002fc-cap
X2    3    2    nuf9002fc-cap
R1    1    2    100  TC=0.000538
*
.ENDS nuf9002fc
*
.SUBCKT nuf9002fc-cap 7 1
**************************************
*      Model Generated by MODPEX     *
*Copyright(c) Symmetry Design Systems*
*         All Rights Reserved        *
*    UNPUBLISHED LICENSED SOFTWARE   *
*   Contains Proprietary Information *
*      Which is The Property of      *
*     SYMMETRY OR ITS LICENSORS      *
*Commercial Use or Resale Restricted *
*   by Symmetry License Agreement    *
**************************************
* Model generated on Feb 21, 05
* MODEL FORMAT: PSpice
*     anode cathode
*node: 7      1
*    Forward Section
D1 2 1 MDD1
.MODEL MDD1 D IS=1.17809e-12 N=1 XTI=1 RS=0.5
+ CJO=1.4e-11 TT=5e-09
*    Leakage Current
R 1 2 MDR 4.5e+07
.MODEL MDR RES TC1=0 TC2=0
*    Breakdown
RZ 2 3 0.0572053 
D3 4 3 MDD3
.MODEL MDD3 D IS=2.5e-15 N=0.5 
EV1 1 4 6 8 1
IBV 0 6 0.001
RBV 6 0 MDRBV 7000
.MODEL MDRBV RES TC1=0.000409
D4 8 0 MDD3
L 7 2 2.8e-10
IT 0 8 0.001
.ENDS nuf9002fc-cap

.SUBCKT nuf4210mnt1g 1 2 3
*******************************************
* Model Generated by ON Discrete Eval Lab *
*    Copyright(c) ON Semiconductor        *
*         All Rights Reserved             *
*      UNPUBLISHED LICENSED SOFTWARE      *
*     Contains Proprietary Information    *
*                                         *
*   Commercial Use or Resale Restricted   *
*******************************************
* Model generated on Sep 16, 05
* MODEL FORMAT: PSpice
*       Line1  Line2  Gnd
*node:    1      2     3
*
X1    4    1    nuf4210mnt1g-cap
X2    4    2    nuf4210mnt1g-cap
R1    1    2    100  TC=0.00056
L1    4    3    12pH
*
.ENDS nuf4210mnt1g
*
.SUBCKT nuf4210mnt1g-cap 7 1
**************************************
*      Model Generated by MODPEX     *
*Copyright(c) Symmetry Design Systems*
*         All Rights Reserved        *
*    UNPUBLISHED LICENSED SOFTWARE   *
*   Contains Proprietary Information *
*      Which is The Property of      *
*     SYMMETRY OR ITS LICENSORS      *
*Commercial Use or Resale Restricted *
*   by Symmetry License Agreement    *
**************************************
* Model generated on Sep 16, 05
* MODEL FORMAT: PSpice
*     anode cathode
*node: 7      1
*    Forward Section
D1 2 1 MDD1
.MODEL MDD1 D IS=1.40094e-17 N=1 XTI=1 RS=0.5
+ CJO=8.5e-12 TT=1e-08
*    Leakage Current
R 1 2 MDR 1.1e+09
.MODEL MDR RES TC1=0 TC2=0
*    Breakdown
RZ 2 3 0.0582053 
D3 4 3 MDD3
.MODEL MDD3 D IS=2.5e-15 N=0.5 
EV1 1 4 6 8 1
IBV 0 6 0.001
RBV 6 0 MDRBV 6950
.MODEL MDRBV RES TC1=0.0004489
D4 8 0 MDD3
L 7 2 150e-12
IT 0 8 0.001
.ENDS nuf4210mnt1g-cap

.SUBCKT nuf4401mnt1g 1 2 3
*******************************************
* Model Generated by ON Discrete Eval Lab *
*    Copyright(c) ON Semiconductor        *
*         All Rights Reserved             *
*      UNPUBLISHED LICENSED SOFTWARE      *
*     Contains Proprietary Information    *
*                                         *
*   Commercial Use or Resale Restricted   *
*******************************************
* Model generated on Sep 15, 05
* MODEL FORMAT: PSpice
*       Line1  Line2  Gnd
*node:    1      2     3
*
X1    4    1    nuf4401mnt1g-cap
X2    4    2    nuf4401mnt1g-cap
R1    1    2    200  TC=0.00056
L1    4    3    24pH
*
.ENDS nuf4401mnt1g
*
.SUBCKT nuf4401mnt1g-cap 7 1
**************************************
*      Model Generated by MODPEX     *
*Copyright(c) Symmetry Design Systems*
*         All Rights Reserved        *
*    UNPUBLISHED LICENSED SOFTWARE   *
*   Contains Proprietary Information *
*      Which is The Property of      *
*     SYMMETRY OR ITS LICENSORS      *
*Commercial Use or Resale Restricted *
*   by Symmetry License Agreement    *
**************************************
* Model generated on Sep 15, 05
* MODEL FORMAT: PSpice
*     anode cathode
*node: 7      1
*    Forward Section
D1 2 1 MDD1
.MODEL MDD1 D IS=3.03872e-17 N=1 XTI=1 RS=0.5
+ CJO=1.5e-11 TT=1e-08
*    Leakage Current
R 1 2 MDR 3.3e+09
.MODEL MDR RES TC1=0 TC2=0
*    Breakdown
RZ 2 3 0.0556053 
D3 4 3 MDD3
.MODEL MDD3 D IS=2.5e-15 N=0.5 
EV1 1 4 6 8 1
IBV 0 6 0.001
RBV 6 0 MDRBV 7080
.MODEL MDRBV RES TC1=0.000473
D4 8 0 MDD3
L 7 2 .6e-09
IT 0 8 0.001
.ENDS nuf4401mnt1g-cap

.SUBCKT nuf6402mn 1 2 3 4 5 6 7 8 9 10 11 12 13
*******************************************
* Model Generated by ON Discrete Eval Lab *
*    Copyright(c) ON Semiconductor        *
*         All Rights Reserved             *
*      UNPUBLISHED LICENSED SOFTWARE      *
*     Contains Proprietary Information    *
*                                         *
*   Commercial Use or Resale Restricted   *
*******************************************
* Model generated on Mar 16, 05
* MODEL FORMAT: PSpice
*        Pin1 Pin3 Pin3 Pin4 Pin5 Pin6 Pin7 Pin8 Pin9 Pin10 Pin11 Pin12 Gnd
*node:    1    2    3    4    5    6    7    8    9    10    11    12    13
*
X1    18   2    nuf6402mn-diode
X2    18   11   nuf6402mn-diode
R1    2    11   100  TC=0.000538
L1    18   13   10p
*
X3    17   3    nuf6402mn-diode
X4    17   10   nuf6402mn-diode
R2    3    10   100  TC=0.000538
L2    17   13   10p
*
X5    16   4    nuf6402mn-diode
X6    16   9    nuf6402mn-diode
R3    4    9    100  TC=0.000538
L3    16   13   10p
*
X7    15   5    nuf6402mn-diode
X8    15   8    nuf6402mn-diode
R4    5    8    100  TC=0.000538
L4    15   13   10p
*
X9    19   1    nuf6402mn-diode
X12   19   12   nuf6402mn-diode
L5    19   13   10p
*
X10   14   6    nuf6402mn-diode
X11   14   7    nuf6402mn-diode
L6    14   13   10p
*
.ENDS nuf6402mn
*
.SUBCKT nuf6402mn-diode 7 1
**************************************
*      Model Generated by MODPEX     *
*Copyright(c) Symmetry Design Systems*
*         All Rights Reserved        *
*    UNPUBLISHED LICENSED SOFTWARE   *
*   Contains Proprietary Information *
*      Which is The Property of      *
*     SYMMETRY OR ITS LICENSORS      *
*Commercial Use or Resale Restricted *
*   by Symmetry License Agreement    *
**************************************
* Model generated on Mar 15, 05
* MODEL FORMAT: PSpice
*     anode cathode
*node: 7      1
*    Forward Section
D1 2 1 MDD1
.MODEL MDD1 D IS=3.68785e-13 N=1 XTI=1 RS=0.2
+ CJO=1.7e-11 TT=5e-09
*    Leakage Current
R 1 2 MDR 3e+07
.MODEL MDR RES TC1=0 TC2=0
*    Breakdown
RZ 2 3 0.0572053 
D3 4 3 MDD3
.MODEL MDD3 D IS=2.5e-15 N=0.5 
EV1 1 4 6 8 1
IBV 0 6 0.001
RBV 6 0 MDRBV 7000
.MODEL MDRBV RES TC1=0.000409
D4 8 0 MDD3
L 7 2 1e-15
IT 0 8 0.001
.ENDS nuf6402mn-diode

.SUBCKT nuf8410mnt4g 1 2 3
*******************************************
* Model Generated by ON Discrete Eval Lab *
*    Copyright(c) ON Semiconductor        *
*         All Rights Reserved             *
*      UNPUBLISHED LICENSED SOFTWARE      *
*     Contains Proprietary Information    *
*                                         *
*   Commercial Use or Resale Restricted   *
*******************************************
* Model generated on Sep 16, 05
* MODEL FORMAT: PSpice
*       Line1  Line2  Gnd
*node:    1      2     3
*
X1    4    1    nuf8410mnt4g-cap
X2    4    2    nuf8410mnt4g-cap
R1    1    2    100  TC=0.00056
L1    4    3    12pH
*
.ENDS nuf8410mnt4g
*
.SUBCKT nuf8410mnt4g-cap 7 1
**************************************
*      Model Generated by MODPEX     *
*Copyright(c) Symmetry Design Systems*
*         All Rights Reserved        *
*    UNPUBLISHED LICENSED SOFTWARE   *
*   Contains Proprietary Information *
*      Which is The Property of      *
*     SYMMETRY OR ITS LICENSORS      *
*Commercial Use or Resale Restricted *
*   by Symmetry License Agreement    *
**************************************
* Model generated on Sep 16, 05
* MODEL FORMAT: PSpice
*     anode cathode
*node: 7      1
*    Forward Section
D1 2 1 MDD1
.MODEL MDD1 D IS=1.40094e-17 N=1 XTI=1 RS=0.5
+ CJO=8.5e-12 TT=1e-08
*    Leakage Current
R 1 2 MDR 1.1e+09
.MODEL MDR RES TC1=0 TC2=0
*    Breakdown
RZ 2 3 0.0582053 
D3 4 3 MDD3
.MODEL MDD3 D IS=2.5e-15 N=0.5 
EV1 1 4 6 8 1
IBV 0 6 0.001
RBV 6 0 MDRBV 6950
.MODEL MDRBV RES TC1=0.0004489
D4 8 0 MDD3
L 7 2 150e-12
IT 0 8 0.001
.ENDS nuf8410mnt4g-cap

.SUBCKT nuf2042xv6 1 2 3 4 5 6
*******************************************
* Model Generated by ON Discrete Eval Lab *
*    Copyright(c) ON Semiconductor        *
*         All Rights Reserved             *
*      UNPUBLISHED LICENSED SOFTWARE      *
*     Contains Proprietary Information    *
*                                         *
*   Commercial Use or Resale Restricted   *
*******************************************
* Model generated on Apr 26, 05
* MODEL FORMAT: PSpice
*        In1  Gnd  In2  Out2  Vcc  Out1
*node:    1    2    3    4     5    6
*
X1    7    1    nuf2042xv6-diode
X2    7    6    nuf2042xv6-diode
R1    1    6    22  TC=0.000538
X3    8    3    nuf2042xv6-diode
X4    8    4    nuf2042xv6-diode
R2    3    4    22  TC=0.000538
L1    7    2    150p
L2    8    2    150p
X5    9    5    nuf2042xv6-diode
L3    9    2    150p
Rsh   2    5    1e-15
*
.ENDS nuf2042xv6
*
.SUBCKT nuf2042xv6-diode 7 1
**************************************
*      Model Generated by MODPEX     *
*Copyright(c) Symmetry Design Systems*
*         All Rights Reserved        *
*    UNPUBLISHED LICENSED SOFTWARE   *
*   Contains Proprietary Information *
*      Which is The Property of      *
*     SYMMETRY OR ITS LICENSORS      *
*Commercial Use or Resale Restricted *
*   by Symmetry License Agreement    *
**************************************
* Model generated on Apr 26, 05
* MODEL FORMAT: PSpice
*     anode cathode
*node: 7      1
*    Forward Section
D1 2 1 MDD1
.MODEL MDD1 D IS=3.68785e-13 N=1 XTI=1 RS=0.2
+ CJO=2.1e-11 TT=5e-09
*    Leakage Current
R 1 2 MDR 3.3e+08
.MODEL MDR RES TC1=0 TC2=0
*    Breakdown
RZ 2 3 0.0612053 
D3 4 3 MDD3
.MODEL MDD3 D IS=2.5e-15 N=0.5 
EV1 1 4 6 8 1
IBV 0 6 0.001
RBV 6 0 MDRBV 6800
.MODEL MDRBV RES TC1=0.000409
D4 8 0 MDD3
L 7 2 400p
IT 0 8 0.001
.ENDS nuf2042xv6-diode

.SUBCKT nuf2030xv6 1 2 3 4 5 6
*******************************************
* Model Generated by ON Discrete Eval Lab *
*    Copyright(c) ON Semiconductor        *
*         All Rights Reserved             *
*      UNPUBLISHED LICENSED SOFTWARE      *
*     Contains Proprietary Information    *
*                                         *
*   Commercial Use or Resale Restricted   *
*******************************************
* Model generated on Apr 26, 05
* MODEL FORMAT: PSpice
*        In1  Gnd  In2  Out2  Vcc  Out1
*node:    1    2    3    4     5    6
*
X1    7    1    nuf2030xv6-diode
X2    7    6    nuf2030xv6-diode
R1    1    6    22  TC=0.000538
X3    8    3    nuf2030xv6-diode
X4    8    4    nuf2030xv6-diode
R2    3    4    22  TC=0.000538
L1    7    2    150p
L2    8    2    150p
X5    9    5    nuf2030xv6-diode
L3    9    2    150p
Rsh   2    5    1e-15
*
.ENDS nuf2030xv6
*
.SUBCKT nuf2030xv6-diode 7 1
**************************************
*      Model Generated by MODPEX     *
*Copyright(c) Symmetry Design Systems*
*         All Rights Reserved        *
*    UNPUBLISHED LICENSED SOFTWARE   *
*   Contains Proprietary Information *
*      Which is The Property of      *
*     SYMMETRY OR ITS LICENSORS      *
*Commercial Use or Resale Restricted *
*   by Symmetry License Agreement    *
**************************************
* Model generated on Apr 26, 05
* MODEL FORMAT: PSpice
*     anode cathode
*node: 7      1
*    Forward Section
D1 2 1 MDD1
.MODEL MDD1 D IS=3.68785e-13 N=1 XTI=1 RS=0.2
+ CJO=1.5e-11 TT=5e-09
*    Leakage Current
R 1 2 MDR 3.3e+08
.MODEL MDR RES TC1=0 TC2=0
*    Breakdown
RZ 2 3 0.0612053 
D3 4 3 MDD3
.MODEL MDD3 D IS=2.5e-15 N=0.5 
EV1 1 4 6 8 1
IBV 0 6 0.001
RBV 6 0 MDRBV 6800
.MODEL MDRBV RES TC1=0.000409
D4 8 0 MDD3
L 7 2 400p
IT 0 8 0.001
.ENDS nuf2030xv6-diode

.SUBCKT nuf6401mn 1 2 3
*******************************************
* Model Generated by ON Discrete Eval Lab *
*    Copyright(c) ON Semiconductor        *
*         All Rights Reserved             *
*      UNPUBLISHED LICENSED SOFTWARE      *
*     Contains Proprietary Information    *
*                                         *
*   Commercial Use or Resale Restricted   *
*******************************************
* Model generated on Mar 16, 05
* MODEL FORMAT: PSpice
*       Line1  Line2  Gnd
*node:    1      2     3
*
X1    4    1    nuf6401mn-diode
X2    4    2    nuf6401mn-diode
R1    1    2    100  TC=0.000538
L1    4    3    10p
*
.ENDS nuf6401mn
*
.SUBCKT nuf6401mn-diode 7 1
**************************************
*      Model Generated by MODPEX     *
*Copyright(c) Symmetry Design Systems*
*         All Rights Reserved        *
*    UNPUBLISHED LICENSED SOFTWARE   *
*   Contains Proprietary Information *
*      Which is The Property of      *
*     SYMMETRY OR ITS LICENSORS      *
*Commercial Use or Resale Restricted *