*On Semi Thyristors

.SUBCKT MAC12HCD MT2 gate MT1 PARAMS:
**************************************
*    Model Generated by EVAL LAB     *
*           Oct 15, 2002             *
*   Copyright(c) On Semiconductor    *
*         All Rights Reserved        *
*Commercial Use or Resale Restricted *
**************************************
*Triac
*MODEL FORMAT: PSpice
+ Vdrm=400v     Idrm=1u
+ Ih=40ma       dVdt=1000e6
+ Igt=18ma      Vgt=0.85v
+ Vtm=1.3v      Itm=17a
+ Ton=1.5u

* Where:
* Vdrm =>  Forward breakover voltage
* Idrm =>  Peak blocking current
* Ih   =>  Holding current [MT2(+)]
* dVdt =>  Critical value for dV/dt triggering
* Igt  =>  Gate trigger current [MT2(+),G(-)]
* Vgt  =>  Gate trigger voltage [MT2(+),G(-)]
* Vtm  =>  On-state voltage
* Itm  =>  On-state current
* Ton  =>  Turn-on time

* Main conduction path
Striac   MT2     MT20    cntrol   0       Vswitch ; controlled switch
Dak1     MT20    MT22    Dak      OFF             ; triac is initially off
VIak     MT22    MT1                              ; current sensor
Striacr  MT2     MT23    cntrolr  0       Vswitch ; controlled switch
Dka1     MT21    MT23    Dak      OFF             ; triac is initially off
VIka     MT1     MT21                             ; reverse current sense

* dVdt Turn-on
Emon     dvdt0   0       TABLE {ABS(V(MT2,MT1))} (0 0) (2000 2000)
CdVdt    dvdt0   dvdt1   100pfd                  ; displacement current
Rdlay    dvdt1   dvdt2   1k
VdVdt    dvdt2   MT1     DC 0.0
EdVdt    condvdt 0       TABLE {i(vdVdt)-100p*dVdt}  (0 0 ) (.1m 10)
RdVdt    condvdt 0       1meg

* Gate
Rseries  gate    gate1   {(Vgt-0.65)/Igt}
Rshunt   gate1   gate2   {0.65/Igt}
Dgkf     gate1   gate2   Dgk
Dgkr     gate2   gate1   Dgk
VIgf     gate2   MT1     DC 0.0                  ; current sensor

* Gate Turn-on
Egate    congate 0       TABLE {(ABS(i(VIgf))-0.95*Igt)} (0 0) (1m 10)
Rgate    congate 0       1meg

* Holding current, holding voltage (Quadrant I)
Emain1   main1   0       TABLE {i(VIak)-Ih+5e-3*i(VIgf)/Igt} (0 0) (.1m 1)
Rmain1   main1   0       1meg
Emain2   main2   0       TABLE {v(MT2,MT1)-(Ih*Vtm/Itm)} (0 0) (.1m 1)
Rmain2   main2   0       1meg
Emain3   cnhold  0       TABLE {v(main1,0)*v(main2,0)} (0 0) (1 10)
Rmain3   cnhold  0       1meg

* Holding current, holding voltage (Quadrant III)
Emain1r  main1r   0       TABLE {i(VIka)-Ih-5e-3*i(VIgf)/Igt} (0 0) (.1m 1)
Rmain1r  main1r   0       1meg
Emain2r  main2r   0       TABLE {v(MT1,MT2)-(Ih*Vtm/Itm)} (0 0) (.1m 1)
Rmain2r  main2r   0       1meg
Emain3r  cnholdr  0       TABLE {v(main1r,0)*v(main2r,0)} (0 0) (1 10)
Rmain3r  cnholdr  0       1meg

* Main
Emain4   main4    0       table {(1.0-ABS(i(VIgf))/Igt)} (0 0) (1 1)
Rmain4   main4    0       1meg
Emain5   cnmain   0       table {v(mt2,mt1)-1.05*Vdrm*v(main4)} (0 0) (1 10)
Rmain5   cnmain   0       1meg

Emain5r  cnmainr  0       table {v(mt1,mt2)-1.05*Vdrm*v(main4)} (0 0) (1 10)
Rmain5r  cnmainr  0       1meg

* Turn-on/Turn-off control (Quadrant I )
Eonoff   contot  0       TABLE
+        {v(cnmain)+v(congate)+v(cnhold)+v(condvdt)} (0 0) (10 10)

* Turn-on/Turn-off delays (Quadrant I)
Rton     contot  dlay1   825
Dton     dlay1   cntrol  Delay
Rtoff    contot  dlay2   {2.9E-3/Ton}
Dtoff    cntrol  dlay2   Delay
Cton     cntrol  0       {Ton/454}

* Turn-on/Turn-off control (Quadrant III)
Eonoffr  contotr 0       TABLE
+        {v(cnmainr)+v(congate)+v(cnholdr)+v(condvdt)} (0 0) (10 10)

* Turn-on/Turn-off delays (Quadrant III)
Rtonr    contotr dlayr1   825
Dtonr    dlayr1  cntrolr  Delay
Rtoffr   contotr dlayr2   {2.9E-3/Ton}
Dtoffr   cntrolr dlayr2   Delay
Ctonr    cntrolr 0        {Ton/454}

* Controlled switch model
.MODEL Vswitch vswitch
+ (Ron = {(Vtm-0.7)/Itm}, Roff = {1.75E-3*Vdrm/Idrm*500},
+  Von = 5.0,             Voff = 1.5)

* Diodes
.MODEL  Dgk     D         (Is=1E-16 Cjo=50pf Rs=5)
.MODEL  Delay   D         (Is=1E-12 Cjo=5pf  Rs=0.01)
.MODEL  Dak     D         (Is=4E-11 Cjo=5pf)

* Allow the gate to float if required
Rfloat  gate    MT1 1e10

.ends

*$
.SUBCKT MCR08MT1 anode gate cathode PARAMS:
**************************************
*    Model Generated by EVAL LAB     *
*          July 23, 2003            *
*   Copyright(c) On Semiconductor    *
*         All Rights Reserved        *
*Commercial Use or Resale Restricted *
**************************************
*SCR
*MODEL FORMAT: PSpice
+ Vdrm=600v     Vrrm=600v     Idrm=10u
+ Ih=2.5ma        dVdt=10e6
* Vgt must be greater than 0.65v
+ Igt=6.5ua      Vgt=0.66v
+ Vtm=1.4v      Itm=1.0
+ Ton=2u        Toff=15u

* Where:
* Vdrm =>  Forward breakover voltage
* Vrrm =>  Reverse breakdown voltage
* Idrm =>  Peak blocking current
* Ih   =>  Holding current
* dVdt =>  Critical value for dV/dt triggering
* Igt  =>  Gate trigger current
* Vgt  =>  Gate trigger voltage
* Vtm  =>  On-state voltage
* Itm  =>  On-state current
* Ton  =>  Turn-on time
* Toff =>  Turn-off time

* Main conduction path
Scr      anode   anode0  control 0       Vswitch ; controlled switch
Dak1     anode0  anode2  Dakfwd  OFF             ; SCR is initially off
Dka      cathode anode0  Dkarev  OFF
VIak     anode2  cathode                         ; current sensor

* dVdt Turn-on
Emon     dvdt0   0       TABLE {v(anode,cathode)} (0 0) (2000 2000)
CdVdt    dvdt0   dvdt1   100pfd                  ; displacement current
Rdlay    dvdt1   dvdt2   1k
VdVdt    dvdt2   cathode DC 0.0
EdVdt    condvdt 0       TABLE {i(vdVdt)-100p*dVdt}  (0 0 ) (.1m 10)
RdVdt    condvdt 0       1meg

* Gate
Rseries  gate    gate1   {(Vgt-0.65)/Igt}
Rshunt   gate1   gate2   {0.65/Igt}
Dgkf     gate1   gate2   Dgk
VIgf     gate2   cathode                         ; current sensor

* Gate Turn-on
Egate1   gate4   0       TABLE {i(Vigf)-0.95*Igt} (0 0) (1m 10)
Rgate1   gate4   0       1meg
Egon1    congate 0       TABLE {v(gate4)*v(anode,cathode)} (0 0) (10 10)
Rgon1    congate 0       1meg

* Main Turn-on
EItot    Itot    0       TABLE {i(VIak)+5E-5*i(VIgf)/Igt} (0 0) (2000 2000)
RItot    Itot    0       1meg
Eprod    prod    0       TABLE {v(anode,cathode)*v(Itot)} (0 0) (1 1)
Rprod    prod    0       1meg
Elin     conmain 0       TABLE
+        {10*(v(prod) - (Vtm*Ih))/(Vtm*Ih)} (0 0) (2 10)
Rlin     conmain 0       1meg

* Turn-on/Turn-off control
Eonoff   contot  0       TABLE
+        {v(congate)+v(conmain)+v(condvdt)} (0 0) (10 10)

* Turn-on/Turn-off delays
Rton    contot  dlay1   825
Dton    dlay1   control Delay
Rtoff   contot  dlay2   {290*Toff/Ton}
Dtoff   control dlay2   Delay
Cton    control 0       {Ton/454}

* Reverse breakdown
Dbreak  anode   break1  Dbreak
Dbreak2 cathode break1  Dseries

* Controlled switch model
.MODEL Vswitch vswitch
+ (Ron = {(Vtm-0.7)/Itm}, Roff = {Vdrm*Vdrm/(Vtm*Ih)},
+  Von = 5.0,             Voff = 1.5)

* Diodes
.MODEL  Dgk     D       (Is=1E-16 Cjo=50pf Rs=5)
.MODEL  Dseries D       (Is=1E-14)
.MODEL  Delay   D       (Is=1E-12 Cjo=5pf  Rs=0.01)
.MODEL  Dkarev  D       (Is=1E-10 Cjo=5pf  Rs=0.01)
.MODEL  Dakfwd  D       (Is=4E-11 Cjo=5pf)
.MODEL  Dbreak  D       (Ibv=1E-7 Bv={1.1*Vrrm} Cjo=5pf Rs=0.5)

* Allow the gate to float if required
Rfloat  gate    cathode 1e10

.ENDS
*$
.SUBCKT MCR100-003 anode gate cathode PARAMS:
**************************************
*    Model Generated by EVAL LAB     *
*          April 1, 2005             *
*   Copyright(c) ON Semiconductor    *
*         All Rights Reserved        *
*Commercial Use or Resale Restricted *
**************************************
*SCR
*MODEL FORMAT: PSpice
+ Vdrm=100v     Vrrm=100v     Idrm=.1u
+ Ih=.5ma       dVdt=35e6
+ Igt=40ua      Vgt=0.62v
+ Vtm=1.2v      Itm=1
+ Ton=2u        Toff=15u

* Where:
* Vdrm =>  Forward breakover voltage
* Vrrm =>  Reverse breakdown voltage
* Idrm =>  Peak blocking current
* Ih   =>  Holding current
* dVdt =>  Critical value for dV/dt triggering
* Igt  =>  Gate trigger current
* Vgt  =>  Gate trigger voltage
* Vtm  =>  On-state voltage
* Itm  =>  On-state current
* Ton  =>  Turn-on time
* Toff =>  Turn-off time

* Main conduction path
Scr      anode   anode0  control 0       Vswitch ; controlled switch
Dak1     anode0  anode2  Dakfwd  OFF             ; SCR is initially off
Dka      cathode anode0  Dkarev  OFF
VIak     anode2  cathode                         ; current sensor

* dVdt Turn-on
Emon     dvdt0   0       TABLE {v(anode,cathode)} (0 0) (2000 2000)
CdVdt    dvdt0   dvdt1   100pfd                  ; displacement current
Rdlay    dvdt1   dvdt2   1k
VdVdt    dvdt2   cathode DC 0.0
EdVdt    condvdt 0       TABLE {i(vdVdt)-100p*dVdt}  (0 0 ) (.1m 10)
RdVdt    condvdt 0       1meg

* Gate
Rseries  gate    gate1   {(Vgt-0.65)/Igt}
Rshunt   gate1   gate2   {0.65/Igt}
Dgkf     gate1   gate2   Dgk
VIgf     gate2   cathode                         ; current sensor

* Gate Turn-on
Egate1   gate4   0       TABLE {i(Vigf)-0.95*Igt} (0 0) (1m 10)
Rgate1   gate4   0       1meg
Egon1    congate 0       TABLE {v(gate4)*v(anode,cathode)} (0 0) (10 10)
Rgon1    congate 0       1meg

* Main Turn-on
EItot    Itot    0       TABLE {i(VIak)+5E-5*i(VIgf)/Igt} (0 0) (2000 2000)
RItot    Itot    0       1meg
Eprod    prod    0       TABLE {v(anode,cathode)*v(Itot)} (0 0) (1 1)
Rprod    prod    0       1meg
Elin     conmain 0       TABLE
+        {10*(v(prod) - (Vtm*Ih))/(Vtm*Ih)} (0 0) (2 10)
Rlin     conmain 0       1meg

* Turn-on/Turn-off control
Eonoff   contot  0       TABLE
+        {v(congate)+v(conmain)+v(condvdt)} (0 0) (10 10)

* Turn-on/Turn-off delays
Rton    contot  dlay1   825
Dton    dlay1   control Delay
Rtoff   contot  dlay2   {290*Toff/Ton}
Dtoff   control dlay2   Delay
Cton    control 0       {Ton/454}

* Reverse breakdown
Dbreak  anode   break1  Dbreak
Dbreak2 cathode break1  Dseries

* Controlled switch model
.MODEL Vswitch vswitch
+ (Ron = {(Vtm-0.7)/Itm}, Roff = {Vdrm*Vdrm/(Vtm*Ih)},
+  Von = 5.0,             Voff = 1.5)

* Diodes
.MODEL  Dgk     D       (Is=1E-16 Cjo=50pf Rs=5)
.MODEL  Dseries D       (Is=1E-14)
.MODEL  Delay   D       (Is=1E-12 Cjo=5pf  Rs=0.01)
.MODEL  Dkarev  D       (Is=1E-10 Cjo=5pf  Rs=0.01)
.MODEL  Dakfwd  D       (Is=4E-11 Cjo=5pf)
.MODEL  Dbreak  D       (Ibv=1E-7 Bv={1.1*Vrrm} Cjo=5pf Rs=0.5)

* Allow the gate to float if required
Rfloat  gate    cathode 1e10

.ENDS
.SUBCKT MCR706A anode gate cathode PARAMS:
**************************************
*    Model Generated by EVAL LAB     *
*          Feb. 22, 2007             *
*   Copyright(c) ON Semiconductor    *
*         All Rights Reserved        *
*Commercial Use or Resale Restricted *
**************************************
*SCR
*MODEL FORMAT: PSpice
+ Vdrm=400v     Vrrm=400v     Idrm=1u
+ Ih=2.5ma      dVdt=100e6
+ Igt=25ua      Vgt=0.51v
+ Vtm=1.7v      Itm=8.2
+ Ton=2u        Toff=15u

* Where:
* Vdrm =>  Forward breakover voltage
* Vrrm =>  Reverse breakdown voltage
* Idrm =>  Peak blocking current
* Ih   =>  Holding current
* dVdt =>  Critical value for dV/dt triggering
* Igt  =>  Gate trigger current
* Vgt  =>  Gate trigger voltage
* Vtm  =>  On-state voltage
* Itm  =>  On-state current
* Ton  =>  Turn-on time
* Toff =>  Turn-off time

* Main conduction path
Scr      anode   anode0  control 0       Vswitch ; controlled switch
Dak1     anode0  anode2  Dakfwd  OFF             ; SCR is initially off
Dka      cathode anode0  Dkarev  OFF
VIak     anode2  cathode                         ; current sensor

* dVdt Turn-on
Emon     dvdt0   0       TABLE {v(anode,cathode)} (0 0) (2000 2000)
CdVdt    dvdt0   dvdt1   100pfd                  ; displacement current
Rdlay    dvdt1   dvdt2   1k
VdVdt    dvdt2   cathode DC 0.0
EdVdt    condvdt 0       TABLE {i(vdVdt)-100p*dVdt}  (0 0 ) (.1m 10)
RdVdt    condvdt 0       1meg

* Gate
Rseries  gate    gate1   {(Vgt-0.5)/Igt}
Rshunt   gate1   gate2   {0.5/Igt}
Dgkf     gate1   gate2   Dgk
VIgf     gate2   cathode                         ; current sensor

* Gate Turn-on
Egate1   gate4   0       TABLE {i(Vigf)-0.95*Igt} (0 0) (1m 10)
Rgate1   gate4   0       1meg
Egon1    congate 0       TABLE {v(gate4)*v(anode,cathode)} (0 0) (10 10)
Rgon1    congate 0       1meg

* Main Turn-on
EItot    Itot    0       TABLE {i(VIak)+5E-5*i(VIgf)/Igt} (0 0) (2000 2000)
RItot    Itot    0       1meg
Eprod    prod    0       TABLE {v(anode,cathode)*v(Itot)} (0 0) (1 1)
Rprod    prod    0       1meg
Elin     conmain 0       TABLE
+        {10*(v(prod) - (Vtm*Ih))/(Vtm*Ih)} (0 0) (2 10)
Rlin     conmain 0       1meg

* Turn-on/Turn-off control
Eonoff   contot  0       TABLE
+        {v(congate)+v(conmain)+v(condvdt)} (0 0) (10 10)

* Turn-on/Turn-off delays
Rton    contot  dlay1   825
Dton    dlay1   control Delay
Rtoff   contot  dlay2   {290*Toff/Ton}
Dtoff   control dlay2   Delay
Cton    control 0       {Ton/454}

* Reverse breakdown
Dbreak  anode   break1  Dbreak
Dbreak2 cathode break1  Dseries

* Controlled switch model
.MODEL Vswitch vswitch
+ (Ron = {(Vtm-0.7)/Itm}, Roff = {Vdrm*Vdrm/(Vtm*Ih)},
+  Von = 5.0,             Voff = 1.5)

* Diodes
.MODEL  Dgk     D       (Is=1E-16 Cjo=50pf Rs=5)
.MODEL  Dseries D       (Is=1E-14)
.MODEL  Delay   D       (Is=1E-12 Cjo=5pf  Rs=0.01)
.MODEL  Dkarev  D       (Is=1E-10 Cjo=5pf  Rs=0.01)
.MODEL  Dakfwd  D       (Is=4E-11 Cjo=5pf)
.MODEL  Dbreak  D       (Ibv=1E-7 Bv={1.1*Vrrm} Cjo=5pf Rs=0.5)

* Allow the gate to float if required
Rfloat  gate    cathode 1e10

.ENDS
.SUBCKT MCR716 anode gate cathode PARAMS:
**************************************
*    Model Generated by EVAL LAB     *
*          Feb. 22, 2007             *
*   Copyright(c) ON Semiconductor    *
*         All Rights Reserved        *
*Commercial Use or Resale Restricted *
**************************************
*SCR
*MODEL FORMAT: PSpice
+ Vdrm=400v     Vrrm=400v     Idrm=1u
+ Ih=1.0ma      dVdt=100e6
+ Igt=25ua      Vgt=0.55v
+ Vtm=1.5v      Itm=8.20
+ Ton=2u        Toff=15u

* Where:
* Vdrm =>  Forward breakover voltage
* Vrrm =>  Reverse breakdown voltage
* Idrm =>  Peak blocking current
* Ih   =>  Holding current
* dVdt =>  Critical value for dV/dt triggering
* Igt  =>  Gate trigger current
* Vgt  =>  Gate trigger voltage
* Vtm  =>  On-state voltage
* Itm  =>  On-state current
* Ton  =>  Turn-on time
* Toff =>  Turn-off time

* Main conduction path
Scr      anode   anode0  control 0       Vswitch ; controlled switch
Dak1     anode0  anode2  Dakfwd  OFF             ; SCR is initially off
Dka      cathode anode0  Dkarev  OFF
VIak     anode2  cathode                         ; current sensor

* dVdt Turn-on
Emon     dvdt0   0       TABLE {v(anode,cathode)} (0 0) (2000 2000)
CdVdt    dvdt0   dvdt1   100pfd                  ; displacement current
Rdlay    dvdt1   dvdt2   1k
VdVdt    dvdt2   cathode DC 0.0
EdVdt    condvdt 0       TABLE {i(vdVdt)-100p*dVdt}  (0 0 ) (.1m 10)
RdVdt    condvdt 0       1meg

* Gate
Rseries  gate    gate1   {(Vgt-0.54)/Igt}
Rshunt   gate1   gate2   {0.54/Igt}
Dgkf     gate1   gate2   Dgk
VIgf     gate2   cathode                         ; current sensor

* Gate Turn-on
Egate1   gate4   0       TABLE {i(Vigf)-0.95*Igt} (0 0) (1m 10)
Rgate1   gate4   0       1meg
Egon1    congate 0       TABLE {v(gate4)*v(anode,cathode)} (0 0) (10 10)
Rgon1    congate 0       1meg

* Main Turn-on
EItot    Itot    0       TABLE {i(VIak)+5E-5*i(VIgf)/Igt} (0 0) (2000 2000)
RItot    Itot    0       1meg
Eprod    prod    0       TABLE {v(anode,cathode)*v(Itot)} (0 0) (1 1)
Rprod    prod    0       1meg
Elin     conmain 0       TABLE
+        {10*(v(prod) - (Vtm*Ih))/(Vtm*Ih)} (0 0) (2 10)
Rlin     conmain 0       1meg

* Turn-on/Turn-off control
Eonoff   contot  0       TABLE
+        {v(congate)+v(conmain)+v(condvdt)} (0 0) (10 10)

* Turn-on/Turn-off delays
Rton    contot  dlay1   825
Dton    dlay1   control Delay
Rtoff   contot  dlay2   {290*Toff/Ton}
Dtoff   control dlay2   Delay
Cton    control 0       {Ton/454}

* Reverse breakdown
Dbreak  anode   break1  Dbreak
Dbreak2 cathode break1  Dseries

* Controlled switch model
.MODEL Vswitch vswitch
+ (Ron = {(Vtm-0.7)/Itm}, Roff = {Vdrm*Vdrm/(Vtm*Ih)},
+  Von = 5.0,             Voff = 1.5)

* Diodes
.MODEL  Dgk     D       (Is=1E-16 Cjo=50pf Rs=5)
.MODEL  Dseries D       (Is=1E-14)
.MODEL  Delay   D       (Is=1E-12 Cjo=5pf  Rs=0.01)
.MODEL  Dkarev  D       (Is=1E-10 Cjo=5pf  Rs=0.01)
.MODEL  Dakfwd  D       (Is=4E-11 Cjo=5pf)
.MODEL  Dbreak  D       (Ibv=1E-7 Bv={1.1*Vrrm} Cjo=5pf Rs=0.5)

* Allow the gate to float if required
Rfloat  gate    cathode 1e10

.ENDS
**************************************
*  Model Generated by SCD Eval Lab   *
*           July 10, 2002            *
*   Copyright(c) On Semiconductor    *
*         All Rights Reserved        *
*Commercial Use or Resale Restricted *
**************************************
*$
.SUBCKT MKP3V240 MT1 MT2
X1 MT1 MT2 MT2 SCR_MKP3V240
X2 MT2 MT1 MT1 SCR_MKP3V240
.ENDS MKP3V240
*$
*
.SUBCKT SCR_MKP3V240 anode gate cathode PARAMS:
*SCR
*MODEL FORMAT: PSpice
+ Vdrm=180v     Vrrm=400v     Idrm=1u
+ Ih=10ma       dVdt=10e6
+ Igt=25ua      Vgt=0.8v
+ Vtm=1.1v      Itm=1.0
+ Ton=2u        Toff=15u

* Where:
* Vdrm =>  Forward breakover voltage
* Vrrm =>  Reverse breakdown voltage
* Idrm =>  Peak blocking current
* Ih   =>  Holding current
* dVdt =>  Critical value for dV/dt triggering
* Igt  =>  Gate trigger current
* Vgt  =>  Gate trigger voltage
* Vtm  =>  On-state voltage
* Itm  =>  On-state current
* Ton  =>  Turn-on time
* Toff =>  Turn-off time

* Main conduction path
Scr      anode   anode0  control 0       Vswitch ; controlled switch
Dak1     anode0  anode2  Dakfwd  OFF             ; SCR is initially off
Dka      cathode anode0  Dkarev  OFF
VIak     anode2  cathode                         ; current sensor

* dVdt Turn-on
Emon     dvdt0   0       TABLE {v(anode,cathode)} (0 0) (2000 2000)
CdVdt    dvdt0   dvdt1   100pfd                  ; displacement current
Rdlay    dvdt1   dvdt2   1k
VdVdt    dvdt2   cathode DC 0.0
EdVdt    condvdt 0       TABLE {i(vdVdt)-100p*dVdt}  (0 0 ) (.1m 10)
RdVdt    condvdt 0       1meg

* Gate
Rseries  gate    gate1   {(Vgt-0.65)/Igt}
Rshunt   gate1   gate2   {0.65/Igt}
Dgkf     gate1   gate2   Dgk
VIgf     gate2   cathode                         ; current sensor

* Gate Turn-on
Egate1   gate4   0       TABLE {i(Vigf)-0.95*Igt} (0 0) (1m 10)
Rgate1   gate4   0       1meg
Egon1    congate 0       TABLE {v(gate4)*v(anode,cathode)} (0 0) (10 10)
Rgon1    congate 0       1meg

* Main Turn-on
EItot    Itot    0       TABLE {i(VIak)+5E-5*i(VIgf)/Igt} (0 0) (2000 2000)
RItot    Itot    0       1meg
Eprod    prod    0       TABLE {v(anode,cathode)*v(Itot)} (0 0) (1 1)
Rprod    prod    0       1meg
Elin     conmain 0       TABLE
+        {10*(v(prod) - (Vtm*Ih))/(Vtm*Ih)} (0 0) (2 10)
Rlin     conmain 0       1meg

* Turn-on/Turn-off control
Eonoff   contot  0       TABLE
+        {v(congate)+v(conmain)+v(condvdt)} (0 0) (10 10)

* Turn-on/Turn-off delays
Rton    contot  dlay1   825
Dton    dlay1   control Delay
Rtoff   contot  dlay2   {290*Toff/Ton}
Dtoff   control dlay2   Delay
Cton    control 0       {Ton/454}

* Reverse breakdown
Dbreak  anode   break1  Dbreak
Dbreak2 cathode break1  Dseries

* Controlled switch model
.MODEL Vswitch vswitch
+ (Ron = {(Vtm-0.7)/Itm}, Roff = {Vdrm*Vdrm/(Vtm*Ih)},
+  Von = 5.0,             Voff = 1.5)

* Diodes
.MODEL  Dgk     D       (Is=1E-16 Cjo=50pf Rs=5)
.MODEL  Dseries D       (Is=1E-14)
.MODEL  Delay   D       (Is=1E-12 Cjo=5pf  Rs=0.01)
.MODEL  Dkarev  D       (Is=1E-10 Cjo=5pf  Rs=0.01)
.MODEL  Dakfwd  D       (Is=4E-11 Cjo=5pf)
.MODEL  Dbreak  D       (Ibv=1E-7 Bv={1.1*Vrrm} Cjo=5pf Rs=0.5)

* Allow the gate to float if required
Rfloat  gate    cathode 1e10

.ENDS
*$
**************************************
*  Model Generated by SCD Eval Lab   *
*            Apr 14, 2004            *
*   Copyright(c) On Semiconductor    *
*         All Rights Reserved        *
*Commercial Use or Resale Restricted *
**************************************
*
.SUBCKT MMT05B230T3 MT2 MT1 PARAMS:
*SSOVP
*MODEL FORMAT: PSpice
+ Vdrm=190v     Idrm=0.5u
+ Ih=340ma      dVdt=5e9
+ Igt=320ma     Vgt=0.9v
+ Vtm=1.53v     Itm=1
+ Ton=1n

* Where:
* Vdrm =>  Forward breakover voltage
* Idrm =>  Peak blocking current
* Ih   =>  Holding current [MT2(+)]
* dVdt =>  Critical value for dV/dt triggering
* Igt  =>  Gate trigger current [MT2(+),G(-)]
* Vgt  =>  Gate trigger voltage [MT2(+),G(-)]
* Vtm  =>  On-state voltage
* Itm  =>  On-state current
* Ton  =>  Turn-on time

* Main conduction path
Striac   MT2     MT20    cntrol   0       Vswitch ; controlled switch
Dak1     MT20    MT22    Dak      OFF             ; triac is initially off
VIak     MT22    MT1                              ; current sensor
Striacr  MT2     MT23    cntrolr  0       Vswitch ; controlled switch
Dka1     MT21    MT23    Dak      OFF             ; triac is initially off
VIka     MT1     MT21                             ; reverse current sense

* dVdt Turn-on
Emon     dvdt0   0       TABLE {ABS(V(MT2,MT1))} (0 0) (2000 2000)
CdVdt    dvdt0   dvdt1   100pfd                   ; displacement current
Rdlay    dvdt1   dvdt2   1k
VdVdt    dvdt2   MT1     DC 0.0
EdVdt    condvdt 0       TABLE {i(vdVdt)-100p*dVdt}  (0 0 ) (.1m 10)
RdVdt    condvdt 0       1meg

* Gate
Rseries  gate    gate1   {(Vgt-0.65)/Igt}
Rshunt   gate1   gate2   {0.65/Igt}
Dgkf     gate1   gate2   Dgk
Dgkr     gate2   gate1   Dgk
VIgf     gate2   MT1     DC 0.0                  ; current sensor

* Gate Turn-on
Egate    congate 0       TABLE {(ABS(i(VIgf))-0.95*Igt)} (0 0) (1m 10)
Rgate    congate 0       1meg

* Holding current, holding voltage (Quadrant I)
Emain1   main1   0       TABLE {i(VIak)-Ih+5e-3*i(VIgf)/Igt} (0 0) (.1m 1)
Rmain1   main1   0       1meg
Emain2   main2   0       TABLE {v(MT2,MT1)-(Ih*Vtm/Itm)} (0 0) (.1m 1)
Rmain2   main2   0       1meg
Emain3   cnhold  0       TABLE {v(main1,0)*v(main2,0)} (0 0) (1 10)
Rmain3   cnhold  0       1meg

* Holding current, holding voltage (Quadrant III)
Emain1r  main1r   0       TABLE {i(VIka)-Ih-5e-3*i(VIgf)/Igt} (0 0) (.1m 1)
Rmain1r  main1r   0       1meg
Emain2r  main2r   0       TABLE {v(MT1,MT2)-(Ih*Vtm/Itm)} (0 0) (.1m 1)
Rmain2r  main2r   0       1meg
Emain3r  cnholdr  0       TABLE {v(main1r,0)*v(main2r,0)} (0 0) (1 10)
Rmain3r  cnholdr  0       1meg

* Main
Emain4   main4    0       table {(1.0-ABS(i(VIgf))/Igt)} (0 0) (1 1)
Rmain4   main4    0       1meg
Emain5   cnmain   0       table {v(mt2,mt1)-1.05*Vdrm*v(main4)} (0 0) (1 10)
Rmain5   cnmain   0       1meg

Emain5r  cnmainr  0       table {v(mt1,mt2)-1.05*Vdrm*v(main4)} (0 0) (1 10)
Rmain5r  cnmainr  0       1meg

* Turn-on/Turn-off control (Quadrant I )
Eonoff   contot  0       TABLE
+        {v(cnmain)+v(congate)+v(cnhold)+v(condvdt)} (0 0) (10 10)

* Turn-on/Turn-off delays (Quadrant I)
Rton     contot  dlay1   825
Dton     dlay1   cntrol  Delay
Rtoff    contot  dlay2   {2.9E-3/Ton}
Dtoff    cntrol  dlay2   Delay
Cton     cntrol  0       {Ton/454}

* Turn-on/Turn-off control (Quadrant III)
Eonoffr  contotr 0       TABLE
+        {v(cnmainr)+v(congate)+v(cnholdr)+v(condvdt)} (0 0) (10 10)

* Turn-on/Turn-off delays (Quadrant III)
Rtonr    contotr dlayr1   825
Dtonr    dlayr1  cntrolr  Delay
Rtoffr   contotr dlayr2   {2.9E-3/Ton}
Dtoffr   cntrolr dlayr2   Delay
Ctonr    cntrolr 0        {Ton/454}

* Controlled switch model
.MODEL Vswitch vswitch
+ (Ron = {(Vtm-0.7)/Itm}, Roff = {Vdrm/Idrm},
+  Von = 5.0,             Voff = 1.5)

* Diodes
.MODEL  Dgk     D         (Is=1E-16 Cjo=50pf Rs=5)
.MODEL  Delay   D         (Is=1E-12 Cjo=5pf Rs=0.01)
.MODEL  Dak     D         (Is=4E-11 Cjo=40pf)

* Allow the gate to float if required
Rfloat  gate    MT1       0.01

.ENDS

**************************************
*  Model Generated by SCD Eval Lab   *
*            Apr 14, 2004            *
*   Copyright(c) On Semiconductor    *
*         All Rights Reserved        *
*Commercial Use or Resale Restricted *
**************************************
*
.SUBCKT MMT05B260T3 MT2 MT1 PARAMS:
*SSOVP
*MODEL FORMAT: PSpice
+ Vdrm=240v     Idrm=0.5u
+ Ih=340ma      dVdt=5e9
+ Igt=320ma     Vgt=0.9v
+ Vtm=1.53v     Itm=1
+ Ton=1n

* Where:
* Vdrm =>  Forward breakover voltage
* Idrm =>  Peak blocking current
* Ih   =>  Holding current [MT2(+)]
* dVdt =>  Critical value for dV/dt triggering
* Igt  =>  Gate trigger current [MT2(+),G(-)]
* Vgt  =>  Gate trigger voltage [MT2(+),G(-)]
* Vtm  =>  On-state voltage
* Itm  =>  On-state current
* Ton  =>  Turn-on time

* Main conduction path
Striac   MT2     MT20    cntrol   0       Vswitch ; controlled switch
Dak1     MT20    MT22    Dak      OFF             ; triac is initially off
VIak     MT22    MT1                              ; current sensor
Striacr  MT2     MT23    cntrolr  0       Vswitch ; controlled switch
Dka1     MT21    MT23    Dak      OFF             ; triac is initially off
VIka     MT1     MT21                             ; reverse current sense

* dVdt Turn-on
Emon     dvdt0   0       TABLE {ABS(V(MT2,MT1))} (0 0) (2000 2000)
CdVdt    dvdt0   dvdt1   100pfd                   ; displacement current
Rdlay    dvdt1   dvdt2   1k
VdVdt    dvdt2   MT1     DC 0.0
EdVdt    condvdt 0       TABLE {i(vdVdt)-100p*dVdt}  (0 0 ) (.1m 10)
RdVdt    condvdt 0       1meg

* Gate
Rseries  gate    gate1   {(Vgt-0.65)/Igt}
Rshunt   gate1   gate2   {0.65/Igt}
Dgkf     gate1   gate2   Dgk
Dgkr     gate2   gate1   Dgk
VIgf     gate2   MT1     DC 0.0                  ; current sensor

* Gate Turn-on
Egate    congate 0       TABLE {(ABS(i(VIgf))-0.95*Igt)} (0 0) (1m 10)
Rgate    congate 0       1meg

* Holding current, holding voltage (Quadrant I)
Emain1   main1   0       TABLE {i(VIak)-Ih+5e-3*i(VIgf)/Igt} (0 0) (.1m 1)
Rmain1   main1   0       1meg
Emain2   main2   0       TABLE {v(MT2,MT1)-(Ih*Vtm/Itm)} (0 0) (.1m 1)
Rmain2   main2   0       1meg
Emain3   cnhold  0       TABLE {v(main1,0)*v(main2,0)} (0 0) (1 10)
Rmain3   cnhold  0       1meg

* Holding current, holding voltage (Quadrant III)
Emain1r  main1r   0       TABLE {i(VIka)-Ih-5e-3*i(VIgf)/Igt} (0 0) (.1m 1)
Rmain1r  main1r   0       1meg
Emain2r  main2r   0       TABLE {v(MT1,MT2)-(Ih*Vtm/Itm)} (0 0) (.1m 1)
Rmain2r  main2r   0       1meg
Emain3r  cnholdr  0       TABLE {v(main1r,0)*v(main2r,0)} (0 0) (1 10)
Rmain3r  cnholdr  0       1meg

* Main
Emain4   main4    0       table {(1.0-ABS(i(VIgf))/Igt)} (0 0) (1 1)
Rmain4   main4    0       1meg
Emain5   cnmain   0       table {v(mt2,mt1)-1.05*Vdrm*v(main4)} (0 0) (1 10)
Rmain5   cnmain   0       1meg

Emain5r  cnmainr  0       table {v(mt1,mt2)-1.05*Vdrm*v(main4)} (0 0) (1 10)
Rmain5r  cnmainr  0       1meg

* Turn-on/Turn-off control (Quadrant I )
Eonoff   contot  0       TABLE
+        {v(cnmain)+v(congate)+v(cnhold)+v(condvdt)} (0 0) (10 10)

* Turn-on/Turn-off delays (Quadrant I)
Rton     contot  dlay1   825
Dton     dlay1   cntrol  Delay
Rtoff    contot  dlay2   {2.9E-3/Ton}
Dtoff    cntrol  dlay2   Delay
Cton     cntrol  0       {Ton/454}

* Turn-on/Turn-off control (Quadrant III)
Eonoffr  contotr 0       TABLE
+        {v(cnmainr)+v(congate)+v(cnholdr)+v(condvdt)} (0 0) (10 10)

* Turn-on/Turn-off delays (Quadrant III)
Rtonr    contotr dlayr1   825
Dtonr    dlayr1  cntrolr  Delay
Rtoffr   contotr dlayr2   {2.9E-3/Ton}
Dtoffr   cntrolr dlayr2   Delay
Ctonr    cntrolr 0        {Ton/454}

* Controlled switch model
.MODEL Vswitch vswitch
+ (Ron = {(Vtm-0.7)/Itm}, Roff = {Vdrm/Idrm},
+  Von = 5.0,             Voff = 1.5)

* Diodes
.MODEL  Dgk     D         (Is=1E-16 Cjo=50pf Rs=5)
.MODEL  Delay   D         (Is=1E-12 Cjo=5pf Rs=0.01)
.MODEL  Dak     D         (Is=4E-11 Cjo=40pf)

* Allow the gate to float if required
Rfloat  gate    MT1       0.01

.ENDS

**************************************
*  Model Generated by SCD Eval Lab   *
*            Apr 14, 2004            *
*   Copyright(c) On Semiconductor    *
*         All Rights Reserved        *
*Commercial Use or Resale Restricted *
**************************************
*
.SUBCKT MMT05B310T3 MT2 MT1 PARAMS:
*SSOVP
*MODEL FORMAT: PSpice
+ Vdrm=280v     Idrm=0.5u
+ Ih=340ma      dVdt=5e9
+ Igt=320ma     Vgt=0.9v
+ Vtm=1.53v     Itm=1
+ Ton=1n

* Where:
* Vdrm =>  Forward breakover voltage
* Idrm =>  Peak blocking current
* Ih   =>  Holding current [MT2(+)]
* dVdt =>  Critical value for dV/dt triggering
* Igt  =>  Gate trigger current [MT2(+),G(-)]
* Vgt  =>  Gate trigger voltage [MT2(+),G(-)]
* Vtm  =>  On-state voltage
* Itm  =>  On-state current
* Ton  =>  Turn-on time

* Main conduction path
Striac   MT2     MT20    cntrol   0       Vswitch ; controlled switch
Dak1     MT20    MT22    Dak      OFF             ; triac is initially off
VIak     MT22    MT1                              ; current sensor
Striacr  MT2     MT23    cntrolr  0       Vswitch ; controlled switch
Dka1     MT21    MT23    Dak      OFF             ; triac is initially off
VIka     MT1     MT21                             ; reverse current sense

* dVdt Turn-on
Emon     dvdt0   0       TABLE {ABS(V(MT2,MT1))} (0 0) (2000 2000)
CdVdt    dvdt0   dvdt1   100pfd                   ; displacement current
Rdlay    dvdt1   dvdt2   1k
VdVdt    dvdt2   MT1     DC 0.0
EdVdt    condvdt 0       TABLE {i(vdVdt)-100p*dVdt}  (0 0 ) (.1m 10)
RdVdt    condvdt 0       1meg

* Gate
Rseries  gate    gate1   {(Vgt-0.65)/Igt}
Rshunt   gate1   gate2   {0.65/Igt}
Dgkf     gate1   gate2   Dgk
Dgkr     gate2   gate1   Dgk
VIgf     gate2   MT1     DC 0.0                  ; current sensor

* Gate Turn-on
Egate    congate 0       TABLE {(ABS(i(VIgf))-0.95*Igt)} (0 0) (1m 10)
Rgate    congate 0       1meg

* Holding current, holding voltage (Quadrant I)
Emain1   main1   0       TABLE {i(VIak)-Ih+5e-3*i(VIgf)/Igt} (0 0) (.1m 1)
Rmain1   main1   0       1meg
Emain2   main2   0       TABLE {v(MT2,MT1)-(Ih*Vtm/Itm)} (0 0) (.1m 1)
Rmain2   main2   0       1meg
Emain3   cnhold  0       TABLE {v(main1,0)*v(main2,0)} (0 0) (1 10)
Rmain3   cnhold  0       1meg

* Holding current, holding voltage (Quadrant III)
Emain1r  main1r   0       TABLE {i(VIka)-Ih-5e-3*i(VIgf)/Igt} (0 0) (.1m 1)
Rmain1r  main1r   0       1meg
Emain2r  main2r   0       TABLE {v(MT1,MT2)-(Ih*Vtm/Itm)} (0 0) (.1m 1)