* Library was created by AVX, version from 09-17-2008

* The library includes all available AVX capacitors components from Tantalum division.

* NOTICE: Specifications are subject to change without notice.  
* Contact your nearest AVX Sales Office for the latest specifications.  
* All statements, information and data given herein are believed to be accurate 
* and reliable, 
* but are presented without guarantee, warranty, or responsibility of any kind, 
* expressed or implied.  
* Statements or suggestions concerning possible use of our product are made 
* without responsibility or warranty that any such use is free of patent 
* infringement and are not recommendations to infringe any patent.
* The user should not assume that all safety measures are indicated or that 
* other measures are indicated or that measures may not be required.  
* Specifications are typical and may not apply to all applications.

.SUBCKT TCJA686K004R0250 1 9

*parasitic inductance
Lesl 1 2 1.800000e-009
Rels 1 2 10

*leakage current & reverse bias effects
Rp 2 9 1.617647e+006
Dp 9 2 DFWD

*RC-ladder model of frequency effects
R1 2 3 RMOD1 1.130782e-001
C1 3 4 CMOD1 9.273098e-004
R2 3 4 RMOD2 8.581353e-001
C2 4 5 CMOD2 5.731869e-004
R3 4 5 RMOD3 3.945244e-002
C3 5 9 CMOD3 6.930157e-005
R4 5 6 RMOD4 3.558092e+034
C4 6 9 CMOD4 2.537149e-025

.MODEL CMOD1 CAP (T_MEASURED=25 TC1=1.463615e-003 TC2=-4.147800e-005)
.MODEL CMOD2 CAP (T_MEASURED=25 TC1=1.463615e-003 TC2=-4.147800e-005)
.MODEL CMOD3 CAP (T_MEASURED=25 TC1=3.749220e-004 TC2=2.806000e-006)
.MODEL CMOD4 CAP (T_MEASURED=25 TC1=3.749220e-004 TC2=2.806000e-006)
.MODEL RMOD1 RES (T_MEASURED=25 TC1=-1.770874e-003 TC2=1.281300e-005)
.MODEL RMOD2 RES (T_MEASURED=25 TC1=5.948893e-003 TC2=5.337100e-005)
.MODEL RMOD3 RES (T_MEASURED=25 TC1=5.948893e-003 TC2=5.337100e-005)
.MODEL RMOD4 RES (T_MEASURED=25 TC1=-7.138201e-003 TC2=2.153200e-005)
.MODEL DFWD D (RS=0.1 IS=8e-8 N=1.5 XTI=0 EG=0.1)

.ENDS

.SUBCKT TCJW157K006R0070 1 9

*parasitic inductance
Lesl 1 2 2.200000e-009
Rels 1 2 10

*leakage current & reverse bias effects
Rp 2 9 7.333333e+005
Dp 9 2 DFWD

*RC-ladder model of frequency effects
R1 2 3 RMOD1 4.605473e-002
C1 3 4 CMOD1 3.468918e-003
R2 3 4 RMOD2 3.737032e-001
C2 4 5 CMOD2 3.089878e-003
R3 4 5 RMOD3 2.222687e-002
C3 5 9 CMOD3 9.953401e-005
R4 5 6 RMOD4 1.513264e-001
C4 6 9 CMOD4 5.376920e-005

.MODEL CMOD1 CAP (T_MEASURED=25 TC1=1.463615e-003 TC2=-4.147800e-005)
.MODEL CMOD2 CAP (T_MEASURED=25 TC1=1.463615e-003 TC2=-4.147800e-005)
.MODEL CMOD3 CAP (T_MEASURED=25 TC1=3.749220e-004 TC2=2.806000e-006)
.MODEL CMOD4 CAP (T_MEASURED=25 TC1=3.749220e-004 TC2=2.806000e-006)
.MODEL RMOD1 RES (T_MEASURED=25 TC1=-1.770874e-003 TC2=1.281300e-005)
.MODEL RMOD2 RES (T_MEASURED=25 TC1=5.948893e-003 TC2=5.337100e-005)
.MODEL RMOD3 RES (T_MEASURED=25 TC1=5.948893e-003 TC2=5.337100e-005)
.MODEL RMOD4 RES (T_MEASURED=25 TC1=-7.138201e-003 TC2=2.153200e-005)
.MODEL DFWD D (RS=0.1 IS=8e-7 N=2.5 XTI=0 EG=0.1)

.ENDS

.SUBCKT TCJC686K006R0100 1 9

*parasitic inductance
Lesl 1 2 2.200000e-009
Rels 1 2 10

*leakage current & reverse bias effects
Rp 2 9 1.617647e+006
Dp 9 2 DFWD

*RC-ladder model of frequency effects
R1 2 3 RMOD1 5.127564e-002
C1 3 4 CMOD1 2.682264e-003
R2 3 4 RMOD2 4.303326e-002
C2 4 5 CMOD2 2.571923e-003
R3 4 5 RMOD3 4.415513e-001
C3 5 9 CMOD3 4.745161e-005
R4 5 6 RMOD4 2.260113e-001
C4 6 9 CMOD4 2.141665e-005

.MODEL CMOD1 CAP (T_MEASURED=25 TC1=1.463615e-003 TC2=-4.147800e-005)
.MODEL CMOD2 CAP (T_MEASURED=25 TC1=1.463615e-003 TC2=-4.147800e-005)
.MODEL CMOD3 CAP (T_MEASURED=25 TC1=3.749220e-004 TC2=2.806000e-006)
.MODEL CMOD4 CAP (T_MEASURED=25 TC1=3.749220e-004 TC2=2.806000e-006)
.MODEL RMOD1 RES (T_MEASURED=25 TC1=-1.770874e-003 TC2=1.281300e-005)
.MODEL RMOD2 RES (T_MEASURED=25 TC1=5.948893e-003 TC2=5.337100e-005)
.MODEL RMOD3 RES (T_MEASURED=25 TC1=5.948893e-003 TC2=5.337100e-005)
.MODEL RMOD4 RES (T_MEASURED=25 TC1=-7.138201e-003 TC2=2.153200e-005)
.MODEL DFWD D (RS=0.1 IS=8e-7 N=2.5 XTI=0 EG=0.1)

.ENDS

.SUBCKT TCJA336K004R 1 9

*parasitic inductance
Lesl 1 2 1.800000e-009
Rels 1 2 10

*leakage current & reverse bias effects
Rp 2 9 3.333333e+006
Dp 9 2 DFWD

*RC-ladder model of frequency effects
R1 2 3 RMOD1 8.737190e-002
C1 3 4 CMOD1 6.664326e-004
R2 3 4 RMOD2 1.522828e-001
C2 4 5 CMOD2 6.655290e-004
R3 4 5 RMOD3 1.284912e+000
C3 5 9 CMOD3 3.059600e-005
R4 5 6 RMOD4 1.962067e+000
C4 6 9 CMOD4 2.904464e-006

.MODEL CMOD1 CAP (T_MEASURED=25 TC1=1.463615e-003 TC2=-4.147800e-005)
.MODEL CMOD2 CAP (T_MEASURED=25 TC1=1.463615e-003 TC2=-4.147800e-005)
.MODEL CMOD3 CAP (T_MEASURED=25 TC1=3.749220e-004 TC2=2.806000e-006)
.MODEL CMOD4 CAP (T_MEASURED=25 TC1=3.749220e-004 TC2=2.806000e-006)
.MODEL RMOD1 RES (T_MEASURED=25 TC1=-1.770874e-003 TC2=1.281300e-005)
.MODEL RMOD2 RES (T_MEASURED=25 TC1=5.948893e-003 TC2=5.337100e-005)
.MODEL RMOD3 RES (T_MEASURED=25 TC1=5.948893e-003 TC2=5.337100e-005)
.MODEL RMOD4 RES (T_MEASURED=25 TC1=-7.138201e-003 TC2=2.153200e-005)
.MODEL DFWD D (RS=0.1 IS=8e-8 N=1.5 XTI=0 EG=0.1)

.ENDS

.SUBCKT TCJT226K006R0150 1 9

*parasitic inductance
Lesl 1 2 1.800000e-009
Rels 1 2 10

*leakage current & reverse bias effects
Rp 2 9 5.000000e+006
Dp 9 2 DFWD

*RC-ladder model of frequency effects
R1 2 3 RMOD1 1.285245e-001
C1 3 4 CMOD1 5.746923e-004
R2 3 4 RMOD2 6.426235e-002
C2 4 5 CMOD2 7.388912e-004
R3 4 5 RMOD3 1.184075e+000
C3 5 9 CMOD3 1.003825e-005
R4 5 6 RMOD4 2.971250e-001
C4 6 9 CMOD4 1.216037e-005

.MODEL CMOD1 CAP (T_MEASURED=25 TC1=1.463615e-003 TC2=-4.147800e-005)
.MODEL CMOD2 CAP (T_MEASURED=25 TC1=1.463615e-003 TC2=-4.147800e-005)
.MODEL CMOD3 CAP (T_MEASURED=25 TC1=3.749220e-004 TC2=2.806000e-006)
.MODEL CMOD4 CAP (T_MEASURED=25 TC1=3.749220e-004 TC2=2.806000e-006)
.MODEL RMOD1 RES (T_MEASURED=25 TC1=-1.770874e-003 TC2=1.281300e-005)
.MODEL RMOD2 RES (T_MEASURED=25 TC1=5.948893e-003 TC2=5.337100e-005)
.MODEL RMOD3 RES (T_MEASURED=25 TC1=5.948893e-003 TC2=5.337100e-005)
.MODEL RMOD4 RES (T_MEASURED=25 TC1=-7.138201e-003 TC2=2.153200e-005)
.MODEL DFWD D (RS=0.1 IS=8e-7 N=2.5 XTI=0 EG=0.1)

.ENDS

.SUBCKT TCJT107K004R0150 1 9

*parasitic inductance
Lesl 1 2 1.800000e-009
Rels 1 2 10

*leakage current & reverse bias effects
Rp 2 9 1.100000e+006
Dp 9 2 DFWD

*RC-ladder model of frequency effects
R1 2 3 RMOD1 8.425295e-002
C1 3 4 CMOD1 2.013089e-003
R2 3 4 RMOD2 4.974808e-001
C2 4 5 CMOD2 5.844714e-004
R3 4 5 RMOD3 3.016416e-002
C3 5 9 CMOD3 4.494275e-005
R4 5 6 RMOD4 9.684315e-002
C4 6 9 CMOD4 5.674146e-005

.MODEL CMOD1 CAP (T_MEASURED=25 TC1=1.463615e-003 TC2=-4.147800e-005)
.MODEL CMOD2 CAP (T_MEASURED=25 TC1=1.463615e-003 TC2=-4.147800e-005)
.MODEL CMOD3 CAP (T_MEASURED=25 TC1=3.749220e-004 TC2=2.806000e-006)
.MODEL CMOD4 CAP (T_MEASURED=25 TC1=3.749220e-004 TC2=2.806000e-006)
.MODEL RMOD1 RES (T_MEASURED=25 TC1=-1.770874e-003 TC2=1.281300e-005)
.MODEL RMOD2 RES (T_MEASURED=25 TC1=5.948893e-003 TC2=5.337100e-005)
.MODEL RMOD3 RES (T_MEASURED=25 TC1=5.948893e-003 TC2=5.337100e-005)
.MODEL RMOD4 RES (T_MEASURED=25 TC1=-7.138201e-003 TC2=2.153200e-005)
.MODEL DFWD D (RS=0.1 IS=8e-8 N=1.5 XTI=0 EG=0.1)

.ENDS

.SUBCKT TCJT106K016R0150 1 9

*parasitic inductance
Lesl 1 2 1.800000e-009
Rels 1 2 10

*leakage current & reverse bias effects
Rp 2 9 1.100000e+007
Dp 9 2 DFWD

*RC-ladder model of frequency effects
R1 2 3 RMOD1 8.934714e-002
C1 3 4 CMOD1 7.002891e-004
R2 3 4 RMOD2 1.110447e-001
C2 4 5 CMOD2 5.965634e-004
R3 4 5 RMOD3 1.136262e+000
C3 5 9 CMOD3 5.307868e-006
R4 5 6 RMOD4 2.404478e-001
C4 6 9 CMOD4 4.730858e-006

.MODEL CMOD1 CAP (T_MEASURED=25 TC1=1.463615e-003 TC2=-4.147800e-005)
.MODEL CMOD2 CAP (T_MEASURED=25 TC1=1.463615e-003 TC2=-4.147800e-005)
.MODEL CMOD3 CAP (T_MEASURED=25 TC1=3.749220e-004 TC2=2.806000e-006)
.MODEL CMOD4 CAP (T_MEASURED=25 TC1=3.749220e-004 TC2=2.806000e-006)
.MODEL RMOD1 RES (T_MEASURED=25 TC1=-1.770874e-003 TC2=1.281300e-005)
.MODEL RMOD2 RES (T_MEASURED=25 TC1=5.948893e-003 TC2=5.337100e-005)
.MODEL RMOD3 RES (T_MEASURED=25 TC1=5.948893e-003 TC2=5.337100e-005)
.MODEL RMOD4 RES (T_MEASURED=25 TC1=-7.138201e-003 TC2=2.153200e-005)
.MODEL DFWD D (RS=0.1 IS=8e-13 N=2.5 XTI=0 EG=0.1)

.ENDS

.SUBCKT TCJR475K010R0500 1 9

*parasitic inductance
Lesl 1 2 1.400000e-009
Rels 1 2 10

*leakage current & reverse bias effects
Rp 2 9 2.340426e+007
Dp 9 2 DFWD

*RC-ladder model of frequency effects
R1 2 3 RMOD1 1.764177e-001
C1 3 4 CMOD1 1.913096e-004
R2 3 4 RMOD2 3.976097e+000
C2 4 5 CMOD2 2.163181e-004
R3 4 5 RMOD3 3.003122e-001
C3 5 9 CMOD3 4.037540e-006
R4 5 6 RMOD4 8.091996e-001
C4 6 9 CMOD4 6.914609e-007

.MODEL CMOD1 CAP (T_MEASURED=25 TC1=1.463615e-003 TC2=-4.147800e-005)
.MODEL CMOD2 CAP (T_MEASURED=25 TC1=1.463615e-003 TC2=-4.147800e-005)
.MODEL CMOD3 CAP (T_MEASURED=25 TC1=3.749220e-004 TC2=2.806000e-006)
.MODEL CMOD4 CAP (T_MEASURED=25 TC1=3.749220e-004 TC2=2.806000e-006)
.MODEL RMOD1 RES (T_MEASURED=25 TC1=-1.770874e-003 TC2=1.281300e-005)
.MODEL RMOD2 RES (T_MEASURED=25 TC1=5.948893e-003 TC2=5.337100e-005)
.MODEL RMOD3 RES (T_MEASURED=25 TC1=5.948893e-003 TC2=5.337100e-005)
.MODEL RMOD4 RES (T_MEASURED=25 TC1=-7.138201e-003 TC2=2.153200e-005)
.MODEL DFWD D (RS=0.1 IS=8e-10 N=2.5 XTI=0 EG=0.1)

.ENDS

.SUBCKT TCJB476K010R0070 1 9

*parasitic inductance
Lesl 1 2 1.800000e-009
Rels 1 2 10

*leakage current & reverse bias effects
Rp 2 9 2.340426e+006
Dp 9 2 DFWD

*RC-ladder model of frequency effects
R1 2 3 RMOD1 4.729570e-002
C1 3 4 CMOD1 3.501290e-004
R2 3 4 RMOD2 5.844696e-002
C2 4 5 CMOD2 1.751103e-003
R3 4 5 RMOD3 5.047731e-001
C3 5 9 CMOD3 2.573178e-005
R4 5 6 RMOD4 1.915456e-001
C4 6 9 CMOD4 2.167301e-005

.MODEL CMOD1 CAP (T_MEASURED=25 TC1=1.463615e-003 TC2=-4.147800e-005)
.MODEL CMOD2 CAP (T_MEASURED=25 TC1=1.463615e-003 TC2=-4.147800e-005)
.MODEL CMOD3 CAP (T_MEASURED=25 TC1=3.749220e-004 TC2=2.806000e-006)
.MODEL CMOD4 CAP (T_MEASURED=25 TC1=3.749220e-004 TC2=2.806000e-006)
.MODEL RMOD1 RES (T_MEASURED=25 TC1=-1.770874e-003 TC2=1.281300e-005)
.MODEL RMOD2 RES (T_MEASURED=25 TC1=5.948893e-003 TC2=5.337100e-005)
.MODEL RMOD3 RES (T_MEASURED=25 TC1=5.948893e-003 TC2=5.337100e-005)
.MODEL RMOD4 RES (T_MEASURED=25 TC1=-7.138201e-003 TC2=2.153200e-005)
.MODEL DFWD D (RS=0.1 IS=8e-10 N=2.5 XTI=0 EG=0.1)

.ENDS

.SUBCKT TCJB336K006R0200 1 9

*parasitic inductance
Lesl 1 2 1.800000e-009
Rels 1 2 10

*leakage current & reverse bias effects
Rp 2 9 3.333333e+006
Dp 9 2 DFWD

*RC-ladder model of frequency effects
R1 2 3 RMOD1 6.548590e-002
C1 3 4 CMOD1 1.289865e-003
R2 3 4 RMOD2 7.656663e-001
C2 4 5 CMOD2 1.453977e-003
R3 4 5 RMOD3 6.661586e-002
C3 5 9 CMOD3 2.176569e-005
R4 5 6 RMOD4 2.478610e-001
C4 6 9 CMOD4 1.152590e-005

.MODEL CMOD1 CAP (T_MEASURED=25 TC1=1.463615e-003 TC2=-4.147800e-005)
.MODEL CMOD2 CAP (T_MEASURED=25 TC1=1.463615e-003 TC2=-4.147800e-005)
.MODEL CMOD3 CAP (T_MEASURED=25 TC1=3.749220e-004 TC2=2.806000e-006)
.MODEL CMOD4 CAP (T_MEASURED=25 TC1=3.749220e-004 TC2=2.806000e-006)
.MODEL RMOD1 RES (T_MEASURED=25 TC1=-1.770874e-003 TC2=1.281300e-005)
.MODEL RMOD2 RES (T_MEASURED=25 TC1=5.948893e-003 TC2=5.337100e-005)
.MODEL RMOD3 RES (T_MEASURED=25 TC1=5.948893e-003 TC2=5.337100e-005)
.MODEL RMOD4 RES (T_MEASURED=25 TC1=-7.138201e-003 TC2=2.153200e-005)
.MODEL DFWD D (RS=0.1 IS=8e-7 N=2.5 XTI=0 EG=0.1)

.ENDS

.SUBCKT TCJB226K016R0150 1 9

*parasitic inductance
Lesl 1 2 1.800000e-009
Rels 1 2 10

*leakage current & reverse bias effects
Rp 2 9 5.000000e+006
Dp 9 2 DFWD

*RC-ladder model of frequency effects
R1 2 3 RMOD1 5.553600e-002
C1 3 4 CMOD1 8.219360e-004
R2 3 4 RMOD2 6.814817e-001
C2 4 5 CMOD2 4.226768e-005
R3 4 5 RMOD3 5.497929e-002
C3 5 9 CMOD3 2.209051e-005
R4 5 6 RMOD4 2.380168e+098
C4 6 9 CMOD4 4.526244e-004

.MODEL CMOD1 CAP (T_MEASURED=25 TC1=1.463615e-003 TC2=-4.147800e-005)
.MODEL CMOD2 CAP (T_MEASURED=25 TC1=1.463615e-003 TC2=-4.147800e-005)
.MODEL CMOD3 CAP (T_MEASURED=25 TC1=3.749220e-004 TC2=2.806000e-006)
.MODEL CMOD4 CAP (T_MEASURED=25 TC1=3.749220e-004 TC2=2.806000e-006)
.MODEL RMOD1 RES (T_MEASURED=25 TC1=-1.770874e-003 TC2=1.281300e-005)
.MODEL RMOD2 RES (T_MEASURED=25 TC1=5.948893e-003 TC2=5.337100e-005)
.MODEL RMOD3 RES (T_MEASURED=25 TC1=5.948893e-003 TC2=5.337100e-005)
.MODEL RMOD4 RES (T_MEASURED=25 TC1=-7.138201e-003 TC2=2.153200e-005)
.MODEL DFWD D (RS=0.1 IS=8e-13 N=2.5 XTI=0 EG=0.1)

.ENDS

.SUBCKT TCJA685K016R0200 1 9

*parasitic inductance
Lesl 1 2 1.800000e-009
Rels 1 2 10

*leakage current & reverse bias effects
Rp 2 9 1.617647e+007
Dp 9 2 DFWD

*RC-ladder model of frequency effects
R1 2 3 RMOD1 1.422435e-001
C1 3 4 CMOD1 4.225953e-004
R2 3 4 RMOD2 1.361801e-001
C2 4 5 CMOD2 3.728357e-004
R3 4 5 RMOD3 1.549606e+000
C3 5 9 CMOD3 5.828770e-006
R4 5 6 RMOD4 1.841745e+000
C4 6 9 CMOD4 9.912257e-007

.MODEL CMOD1 CAP (T_MEASURED=25 TC1=1.463615e-003 TC2=-4.147800e-005)
.MODEL CMOD2 CAP (T_MEASURED=25 TC1=1.463615e-003 TC2=-4.147800e-005)
.MODEL CMOD3 CAP (T_MEASURED=25 TC1=3.749220e-004 TC2=2.806000e-006)
.MODEL CMOD4 CAP (T_MEASURED=25 TC1=3.749220e-004 TC2=2.806000e-006)
.MODEL RMOD1 RES (T_MEASURED=25 TC1=-1.770874e-003 TC2=1.281300e-005)
.MODEL RMOD2 RES (T_MEASURED=25 TC1=5.948893e-003 TC2=5.337100e-005)
.MODEL RMOD3 RES (T_MEASURED=25 TC1=5.948893e-003 TC2=5.337100e-005)
.MODEL RMOD4 RES (T_MEASURED=25 TC1=-7.138201e-003 TC2=2.153200e-005)
.MODEL DFWD D (RS=0.1 IS=8e-13 N=2.5 XTI=0 EG=0.1)

.ENDS

.SUBCKT TCJA336K006R0200 1 9

*parasitic inductance
Lesl 1 2 1.800000e-009
Rels 1 2 10

*leakage current & reverse bias effects
Rp 2 9 3.333333e+006
Dp 9 2 DFWD

*RC-ladder model of frequency effects
R1 2 3 RMOD1 1.101916e-001
C1 3 4 CMOD1 1.169041e-003
R2 3 4 RMOD2 7.737693e-001
C2 4 5 CMOD2 1.045350e-003
R3 4 5 RMOD3 1.083212e-001
C3 5 9 CMOD3 2.428628e-005
R4 5 6 RMOD4 4.265811e-001
C4 6 9 CMOD4 9.025418e-006

.MODEL CMOD1 CAP (T_MEASURED=25 TC1=1.463615e-003 TC2=-4.147800e-005)
.MODEL CMOD2 CAP (T_MEASURED=25 TC1=1.463615e-003 TC2=-4.147800e-005)
.MODEL CMOD3 CAP (T_MEASURED=25 TC1=3.749220e-004 TC2=2.806000e-006)
.MODEL CMOD4 CAP (T_MEASURED=25 TC1=3.749220e-004 TC2=2.806000e-006)
.MODEL RMOD1 RES (T_MEASURED=25 TC1=-1.770874e-003 TC2=1.281300e-005)
.MODEL RMOD2 RES (T_MEASURED=25 TC1=5.948893e-003 TC2=5.337100e-005)
.MODEL RMOD3 RES (T_MEASURED=25 TC1=5.948893e-003 TC2=5.337100e-005)
.MODEL RMOD4 RES (T_MEASURED=25 TC1=-7.138201e-003 TC2=2.153200e-005)
.MODEL DFWD D (RS=0.1 IS=8e-7 N=2.5 XTI=0 EG=0.1)

.ENDS

.SUBCKT TCJA156K010R0200 1 9

*parasitic inductance
Lesl 1 2 1.800000e-009
Rels 1 2 10

*leakage current & reverse bias effects
Rp 2 9 7.333333e+006
Dp 9 2 DFWD

*RC-ladder model of frequency effects
R1 2 3 RMOD1 8.580856e-002
C1 3 4 CMOD1 8.723006e-004
R2 3 4 RMOD2 1.012734e-001
C2 4 5 CMOD2 6.588410e-004
R3 4 5 RMOD3 1.017198e+000
C3 5 9 CMOD3 1.280677e-005
R4 5 6 RMOD4 1.013617e+000
C4 6 9 CMOD4 2.273641e-006

.MODEL CMOD1 CAP (T_MEASURED=25 TC1=1.463615e-003 TC2=-4.147800e-005)
.MODEL CMOD2 CAP (T_MEASURED=25 TC1=1.463615e-003 TC2=-4.147800e-005)
.MODEL CMOD3 CAP (T_MEASURED=25 TC1=3.749220e-004 TC2=2.806000e-006)
.MODEL CMOD4 CAP (T_MEASURED=25 TC1=3.749220e-004 TC2=2.806000e-006)
.MODEL RMOD1 RES (T_MEASURED=25 TC1=-1.770874e-003 TC2=1.281300e-005)
.MODEL RMOD2 RES (T_MEASURED=25 TC1=5.948893e-003 TC2=5.337100e-005)
.MODEL RMOD3 RES (T_MEASURED=25 TC1=5.948893e-003 TC2=5.337100e-005)
.MODEL RMOD4 RES (T_MEASURED=25 TC1=-7.138201e-003 TC2=2.153200e-005)
.MODEL DFWD D (RS=0.1 IS=8e-10 N=2.5 XTI=0 EG=0.1)

.ENDS

.SUBCKT TCJA156K006R0300 1 9

*parasitic inductance
Lesl 1 2 1.800000e-009
Rels 1 2 10

*leakage current & reverse bias effects
Rp 2 9 7.333333e+006
Dp 9 2 DFWD

*RC-ladder model of frequency effects
R1 2 3 RMOD1 1.080375e-001
C1 3 4 CMOD1 5.148147e-004
R2 3 4 RMOD2 1.344854e-001
C2 4 5 CMOD2 4.814887e-004
R3 4 5 RMOD3 1.265826e+000
C3 5 9 CMOD3 1.138274e-005
R4 5 6 RMOD4 4.329143e-001
C4 6 9 CMOD4 3.701067e-006

.MODEL CMOD1 CAP (T_MEASURED=25 TC1=1.463615e-003 TC2=-4.147800e-005)
.MODEL CMOD2 CAP (T_MEASURED=25 TC1=1.463615e-003 TC2=-4.147800e-005)
.MODEL CMOD3 CAP (T_MEASURED=25 TC1=3.749220e-004 TC2=2.806000e-006)
.MODEL CMOD4 CAP (T_MEASURED=25 TC1=3.749220e-004 TC2=2.806000e-006)
.MODEL RMOD1 RES (T_MEASURED=25 TC1=-1.770874e-003 TC2=1.281300e-005)
.MODEL RMOD2 RES (T_MEASURED=25 TC1=5.948893e-003 TC2=5.337100e-005)
.MODEL RMOD3 RES (T_MEASURED=25 TC1=5.948893e-003 TC2=5.337100e-005)
.MODEL RMOD4 RES (T_MEASURED=25 TC1=-7.138201e-003 TC2=2.153200e-005)
.MODEL DFWD D (RS=0.1 IS=8e-7 N=2.5 XTI=0 EG=0.1)

.ENDS

.SUBCKT TCJA156K004R0300 1 9

*parasitic inductance
Lesl 1 2 1.800000e-009
Rels 1 2 10

*leakage current & reverse bias effects
Rp 2 9 7.333333e+006
Dp 9 2 DFWD

*RC-ladder model of frequency effects
R1 2 3 RMOD1 6.845597e-002
C1 3 4 CMOD1 1.026777e-005
R2 3 4 RMOD2 3.703020e-002
C2 4 5 CMOD2 4.799262e-004
R3 4 5 RMOD3 9.883267e-001
C3 5 9 CMOD3 1.504396e-005
R4 5 6 RMOD4 1.466874e-001
C4 6 9 CMOD4 5.199173e-012

.MODEL CMOD1 CAP (T_MEASURED=25 TC1=1.463615e-003 TC2=-4.147800e-005)
.MODEL CMOD2 CAP (T_MEASURED=25 TC1=1.463615e-003 TC2=-4.147800e-005)
.MODEL CMOD3 CAP (T_MEASURED=25 TC1=3.749220e-004 TC2=2.806000e-006)
.MODEL CMOD4 CAP (T_MEASURED=25 TC1=3.749220e-004 TC2=2.806000e-006)
.MODEL RMOD1 RES (T_MEASURED=25 TC1=-1.770874e-003 TC2=1.281300e-005)
.MODEL RMOD2 RES (T_MEASURED=25 TC1=5.948893e-003 TC2=5.337100e-005)
.MODEL RMOD3 RES (T_MEASURED=25 TC1=5.948893e-003 TC2=5.337100e-005)
.MODEL RMOD4 RES (T_MEASURED=25 TC1=-7.138201e-003 TC2=2.153200e-005)
.MODEL DFWD D (RS=0.1 IS=8e-8 N=1.5 XTI=0 EG=0.1)

.ENDS

.SUBCKT TCJA107K002R0200 1 9

*parasitic inductance
Lesl 1 2 1.800000e-009
Rels 1 2 10

*leakage current & reverse bias effects
Rp 2 9 1.100000e+006
Dp 9 2 DFWD

*RC-ladder model of frequency effects
R1 2 3 RMOD1 6.712035e-002
C1 3 4 CMOD1 9.722445e-005
R2 3 4 RMOD2 2.776186e-002
C2 4 5 CMOD2 1.489191e-003
R3 4 5 RMOD3 4.967916e-001
C3 5 9 CMOD3 2.478407e-005
R4 5 6 RMOD4 1.280127e-002
C4 6 9 CMOD4 7.660112e-005

.MODEL CMOD1 CAP (T_MEASURED=25 TC1=1.463615e-003 TC2=-4.147800e-005)
.MODEL CMOD2 CAP (T_MEASURED=25 TC1=1.463615e-003 TC2=-4.147800e-005)
.MODEL CMOD3 CAP (T_MEASURED=25 TC1=3.749220e-004 TC2=2.806000e-006)
.MODEL CMOD4 CAP (T_MEASURED=25 TC1=3.749220e-004 TC2=2.806000e-006)
.MODEL RMOD1 RES (T_MEASURED=25 TC1=-1.770874e-003 TC2=1.281300e-005)
.MODEL RMOD2 RES (T_MEASURED=25 TC1=5.948893e-003 TC2=5.337100e-005)
.MODEL RMOD3 RES (T_MEASURED=25 TC1=5.948893e-003 TC2=5.337100e-005)
.MODEL RMOD4 RES (T_MEASURED=25 TC1=-7.138201e-003 TC2=2.153200e-005)
.MODEL DFWD D (RS=0.1 IS=8e-6 N=1.5 XTI=0 EG=0.1)

.ENDS

.SUBCKT TCJA106K016R0200 1 9

*parasitic inductance
Lesl 1 2 1.800000e-009
Rels 1 2 10

*leakage current & reverse bias effects
Rp 2 9 1.100000e+007
Dp 9 2 DFWD

*RC-ladder model of frequency effects
R1 2 3 RMOD1 6.650526e-002
C1 3 4 CMOD1 1.157808e-005
R2 3 4 RMOD2 9.250729e+003
C2 4 5 CMOD2 2.726679e-005
R3 4 5 RMOD3 2.673472e-002
C3 5 9 CMOD3 7.790469e-005
R4 5 6 RMOD4 8.631874e+000
C4 6 9 CMOD4 2.056693e-005

.MODEL CMOD1 CAP (T_MEASURED=25 TC1=1.463615e-003 TC2=-4.147800e-005)
.MODEL CMOD2 CAP (T_MEASURED=25 TC1=1.463615e-003 TC2=-4.147800e-005)
.MODEL CMOD3 CAP (T_MEASURED=25 TC1=3.749220e-004 TC2=2.806000e-006)
.MODEL CMOD4 CAP (T_MEASURED=25 TC1=3.749220e-004 TC2=2.806000e-006)
.MODEL RMOD1 RES (T_MEASURED=25 TC1=-1.770874e-003 TC2=1.281300e-005)
.MODEL RMOD2 RES (T_MEASURED=25 TC1=5.948893e-003 TC2=5.337100e-005)
.MODEL RMOD3 RES (T_MEASURED=25 TC1=5.948893e-003 TC2=5.337100e-005)
.MODEL RMOD4 RES (T_MEASURED=25 TC1=-7.138201e-003 TC2=2.153200e-005)
.MODEL DFWD D (RS=0.1 IS=8e-13 N=2.5 XTI=0 EG=0.1)

.ENDS

.SUBCKT TCJA106K010R0300 1 9

*parasitic inductance
Lesl 1 2 1.800000e-009
Rels 1 2 10

*leakage current & reverse bias effects
Rp 2 9 1.100000e+007
Dp 9 2 DFWD

*RC-ladder model of frequency effects
R1 2 3 RMOD1 8.341402e-002
C1 3 4 CMOD1 5.706107e-004
R2 3 4 RMOD2 5.902390e-002
C2 4 5 CMOD2 3.534453e-004
R3 4 5 RMOD3 1.492943e+000
C3 5 9 CMOD3 9.008111e-006
R4 5 6 RMOD4 5.843280e-001
C4 6 9 CMOD4 1.028989e-006

.MODEL CMOD1 CAP (T_MEASURED=25 TC1=1.463615e-003 TC2=-4.147800e-005)
.MODEL CMOD2 CAP (T_MEASURED=25 TC1=1.463615e-003 TC2=-4.147800e-005)
.MODEL CMOD3 CAP (T_MEASURED=25 TC1=3.749220e-004 TC2=2.806000e-006)
.MODEL CMOD4 CAP (T_MEASURED=25 TC1=3.749220e-004 TC2=2.806000e-006)
.MODEL RMOD1 RES (T_MEASURED=25 TC1=-1.770874e-003 TC2=1.281300e-005)
.MODEL RMOD2 RES (T_MEASURED=25 TC1=5.948893e-003 TC2=5.337100e-005)
.MODEL RMOD3 RES (T_MEASURED=25 TC1=5.948893e-003 TC2=5.337100e-005)
.MODEL RMOD4 RES (T_MEASURED=25 TC1=-7.138201e-003 TC2=2.153200e-005)
.MODEL DFWD D (RS=0.1 IS=8e-10 N=2.5 XTI=0 EG=0.1)

.ENDS

.SUBCKT TCJC476K010R0100 1 9

*parasitic inductance
Lesl 1 2 2.200000e-009
Rels 1 2 10

*leakage current & reverse bias effects
Rp 2 9 2.340426e+006
Dp 9 2 DFWD

*RC-ladder model of frequency effects
R1 2 3 RMOD1 5.535973e-002
C1 3 4 CMOD1 1.401346e-003
R2 3 4 RMOD2 5.468861e+000
C2 4 5 CMOD2 2.141347e-003
R3 4 5 RMOD3 1.125665e-001
C3 5 9 CMOD3 3.465634e-005
R4 5 6 RMOD4 2.658502e-001
C4 6 9 CMOD4 1.399893e-005

.MODEL CMOD1 CAP (T_MEASURED=25 TC1=1.463615e-003 TC2=-4.147800e-005)
.MODEL CMOD2 CAP (T_MEASURED=25 TC1=1.463615e-003 TC2=-4.147800e-005)
.MODEL CMOD3 CAP (T_MEASURED=25 TC1=3.749220e-004 TC2=2.806000e-006)
.MODEL CMOD4 CAP (T_MEASURED=25 TC1=3.749220e-004 TC2=2.806000e-006)
.MODEL RMOD1 RES (T_MEASURED=25 TC1=-1.770874e-003 TC2=1.281300e-005)
.MODEL RMOD2 RES (T_MEASURED=25 TC1=5.948893e-003 TC2=5.337100e-005)
.MODEL RMOD3 RES (T_MEASURED=25 TC1=5.948893e-003 TC2=5.337100e-005)
.MODEL RMOD4 RES (T_MEASURED=25 TC1=-7.138201e-003 TC2=2.153200e-005)
.MODEL DFWD D (RS=0.1 IS=8e-10 N=2.5 XTI=0 EG=0.1)

.ENDS

.SUBCKT TCJT476K006R0080 1 9

*parasitic inductance
Lesl 1 2 1.800000e-009
Rels 1 2 10

*leakage current & reverse bias effects
Rp 2 9 2.340426e+006
Dp 9 2 DFWD

*RC-ladder model of frequency effects
R1 2 3 RMOD1 2.221310e-002
C1 3 4 CMOD1 1.068689e-004
R2 3 4 RMOD2 2.216407e-002
C2 4 5 CMOD2 1.201441e-003
R3 4 5 RMOD3 5.001443e-001
C3 5 9 CMOD3 6.378848e-006
R4 5 6 RMOD4 3.134365e-002
C4 6 9 CMOD4 4.088904e-005

.MODEL CMOD1 CAP (T_MEASURED=25 TC1=1.463615e-003 TC2=-4.147800e-005)
.MODEL CMOD2 CAP (T_MEASURED=25 TC1=1.463615e-003 TC2=-4.147800e-005)
.MODEL CMOD3 CAP (T_MEASURED=25 TC1=3.749220e-004 TC2=2.806000e-006)
.MODEL CMOD4 CAP (T_MEASURED=25 TC1=3.749220e-004 TC2=2.806000e-006)
.MODEL RMOD1 RES (T_MEASURED=25 TC1=-1.770874e-003 TC2=1.281300e-005)
.MODEL RMOD2 RES (T_MEASURED=25 TC1=5.948893e-003 TC2=5.337100e-005)
.MODEL RMOD3 RES (T_MEASURED=25 TC1=5.948893e-003 TC2=5.337100e-005)
.MODEL RMOD4 RES (T_MEASURED=25 TC1=-7.138201e-003 TC2=2.153200e-005)
.MODEL DFWD D (RS=0.1 IS=8e-7 N=2.5 XTI=0 EG=0.1)

.ENDS

.SUBCKT TCJT226K010R0150 1 9

*parasitic inductance
Lesl 1 2 1.800000e-009
Rels 1 2 10

*leakage current & reverse bias effects
Rp 2 9 5.000000e+006
Dp 9 2 DFWD

*RC-ladder model of frequency effects
R1 2 3 RMOD1 5.120655e-002
C1 3 4 CMOD1 6.495580e-004
R2 3 4 RMOD2 9.030560e-001
C2 4 5 CMOD2 4.838872e-005
R3 4 5 RMOD3 4.833453e-002
C3 5 9 CMOD3 4.456360e-006
R4 5 6 RMOD4 5.661129e-002
C4 6 9 CMOD4 1.767230e-005

.MODEL CMOD1 CAP (T_MEASURED=25 TC1=1.463615e-003 TC2=-4.147800e-005)
.MODEL CMOD2 CAP (T_MEASURED=25 TC1=1.463615e-003 TC2=-4.147800e-005)
.MODEL CMOD3 CAP (T_MEASURED=25 TC1=3.749220e-004 TC2=2.806000e-006)
.MODEL CMOD4 CAP (T_MEASURED=25 TC1=3.749220e-004 TC2=2.806000e-006)
.MODEL RMOD1 RES (T_MEASURED=25 TC1=-1.770874e-003 TC2=1.281300e-005)
.MODEL RMOD2 RES (T_MEASURED=25 TC1=5.948893e-003 TC2=5.337100e-005)
.MODEL RMOD3 RES (T_MEASURED=25 TC1=5.948893e-003 TC2=5.337100e-005)
.MODEL RMOD4 RES (T_MEASURED=25 TC1=-7.138201e-003 TC2=2.153200e-005)
.MODEL DFWD D (RS=0.1 IS=8e-10 N=2.5 XTI=0 EG=0.1)

.ENDS

.SUBCKT TCJC336K010R0100 1 9

*parasitic inductance
Lesl 1 2 2.200000e-009
Rels 1 2 10

*leakage current & reverse bias effects
Rp 2 9 3.333333e+006
Dp 9 2 DFWD

*RC-ladder model of frequency effects
R1 2 3 RMOD1 4.292292e-002
C1 3 4 CMOD1 8.857715e-005
R2 3 4 RMOD2 2.401459e-002
C2 4 5 CMOD2 8.939213e-004
R3 4 5 RMOD3 4.426389e-001
C3 5 9 CMOD3 3.311644e-005
R4 5 6 RMOD4 1.562072e-003
C4 6 9 CMOD4 2.410036e-046

.MODEL CMOD1 CAP (T_MEASURED=25 TC1=1.463615e-003 TC2=-4.147800e-005)
.MODEL CMOD2 CAP (T_MEASURED=25 TC1=1.463615e-003 TC2=-4.147800e-005)
.MODEL CMOD3 CAP (T_MEASURED=25 TC1=3.749220e-004 TC2=2.806000e-006)
.MODEL CMOD4 CAP (T_MEASURED=25 TC1=3.749220e-004 TC2=2.806000e-006)
.MODEL RMOD1 RES (T_MEASURED=25 TC1=-1.770874e-003 TC2=1.281300e-005)
.MODEL RMOD2 RES (T_MEASURED=25 TC1=5.948893e-003 TC2=5.337100e-005)
.MODEL RMOD3 RES (T_MEASURED=25 TC1=5.948893e-003 TC2=5.337100e-005)
.MODEL RMOD4 RES (T_MEASURED=25 TC1=-7.138201e-003 TC2=2.153200e-005)
.MODEL DFWD D (RS=0.1 IS=8e-10 N=2.5 XTI=0 EG=0.1)

.ENDS

.SUBCKT TCJB476K006R0070 1 9

*parasitic inductance
Lesl 1 2 1.800000e-009
Rels 1 2 10

*leakage current & reverse bias effects
Rp 2 9 2.340426e+006
Dp 9 2 DFWD

*RC-ladder model of frequency effects
R1 2 3 RMOD1 2.742283e-002
C1 3 4 CMOD1 7.044018e-005
R2 3 4 RMOD2 5.092503e-002
C2 4 5 CMOD2 1.315970e-003
R3 4 5 RMOD3 3.258053e-001
C3 5 9 CMOD3 6.574204e-006
R4 5 6 RMOD4 2.993631e-002
C4 6 9 CMOD4 4.066946e-005

.MODEL CMOD1 CAP (T_MEASURED=25 TC1=1.463615e-003 TC2=-4.147800e-005)
.MODEL CMOD2 CAP (T_MEASURED=25 TC1=1.463615e-003 TC2=-4.147800e-005)
.MODEL CMOD3 CAP (T_MEASURED=25 TC1=3.749220e-004 TC2=2.806000e-006)
.MODEL CMOD4 CAP (T_MEASURED=25 TC1=3.749220e-004 TC2=2.806000e-006)
.MODEL RMOD1 RES (T_MEASURED=25 TC1=-1.770874e-003 TC2=1.281300e-005)
.MODEL RMOD2 RES (T_MEASURED=25 TC1=5.948893e-003 TC2=5.337100e-005)
.MODEL RMOD3 RES (T_MEASURED=25 TC1=5.948893e-003 TC2=5.337100e-005)
.MODEL RMOD4 RES (T_MEASURED=25 TC1=-7.138201e-003 TC2=2.153200e-005)
.MODEL DFWD D (RS=0.1 IS=8e-7 N=2.5 XTI=0 EG=0.1)

.ENDS

.SUBCKT TCJB226K010R0300 1 9

*parasitic inductance
Lesl 1 2 1.800000e-009
Rels 1 2 10

*leakage current & reverse bias effects
Rp 2 9 5.000000e+006
Dp 9 2 DFWD

*RC-ladder model of frequency effects
R1 2 3 RMOD1 3.017172e-002
C1 3 4 CMOD1 9.721682e-004
R2 3 4 RMOD2 5.577549e-003
C2 4 5 CMOD2 6.411146e-004
R3 4 5 RMOD3 7.723751e-001
C3 5 9 CMOD3 4.494234e-006
R4 5 6 RMOD4 4.598300e-002
C4 6 9 CMOD4 1.759722e-005

.MODEL CMOD1 CAP (T_MEASURED=25 TC1=1.463615e-003 TC2=-4.147800e-005)
.MODEL CMOD2 CAP (T_MEASURED=25 TC1=1.463615e-003 TC2=-4.147800e-005)
.MODEL CMOD3 CAP (T_MEASURED=25 TC1=3.749220e-004 TC2=2.806000e-006)
.MODEL CMOD4 CAP (T_MEASURED=25 TC1=3.749220e-004 TC2=2.806000e-006)
.MODEL RMOD1 RES (T_MEASURED=25 TC1=-1.770874e-003 TC2=1.281300e-005)
.MODEL RMOD2 RES (T_MEASURED=25 TC1=5.948893e-003 TC2=5.337100e-005)
.MODEL RMOD3 RES (T_MEASURED=25 TC1=5.948893e-003 TC2=5.337100e-005)
.MODEL RMOD4 RES (T_MEASURED=25 TC1=-7.138201e-003 TC2=2.153200e-005)
.MODEL DFWD D (RS=0.1 IS=8e-10 N=2.5 XTI=0 EG=0.1)

.ENDS

.SUBCKT TCJB157K004R0070 1 9

*parasitic inductance
Lesl 1 2 1.800000e-009
Rels 1 2 10

*leakage current & reverse bias effects
Rp 2 9 7.333333e+005
Dp 9 2 DFWD

*RC-ladder model of frequency effects
R1 2 3 RMOD1 2.731416e-002
C1 3 4 CMOD1 1.880849e-003
R2 3 4 RMOD2 2.582346e-001
C2 4 5 CMOD2 2.353087e-004
R3 4 5 RMOD3 5.616122e-002
C3 5 9 CMOD3 1.522003e-005
R4 5 6 RMOD4 2.246622e-002
C4 6 9 CMOD4 1.361718e-004

.MODEL CMOD1 CAP (T_MEASURED=25 TC1=1.463615e-003 TC2=-4.147800e-005)
.MODEL CMOD2 CAP (T_MEASURED=25 TC1=1.463615e-003 TC2=-4.147800e-005)
.MODEL CMOD3 CAP (T_MEASURED=25 TC1=3.749220e-004 TC2=2.806000e-006)
.MODEL CMOD4 CAP (T_MEASURED=25 TC1=3.749220e-004 TC2=2.806000e-006)
.MODEL RMOD1 RES (T_MEASURED=25 TC1=-1.770874e-003 TC2=1.281300e-005)
.MODEL RMOD2 RES (T_MEASURED=25 TC1=5.948893e-003 TC2=5.337100e-005)
.MODEL RMOD3 RES (T_MEASURED=25 TC1=5.948893e-003 TC2=5.337100e-005)
.MODEL RMOD4 RES (T_MEASURED=25 TC1=-7.138201e-003 TC2=2.153200e-005)
.MODEL DFWD D (RS=0.1 IS=8e-8 N=1.5 XTI=0 EG=0.1)

.ENDS

.SUBCKT TCJB156K016R0150 1 9

*parasitic inductance
Lesl 1 2 1.800000e-009
Rels 1 2 10

*leakage current & reverse bias effects
Rp 2 9 7.333333e+006
Dp 9 2 DFWD

*RC-ladder model of frequency effects
R1 2 3 RMOD1 6.565387e-002
C1 3 4 CMOD1 9.223245e-004
R2 3 4 RMOD2 3.345943e-002
C2 4 5 CMOD2 4.788729e-004
R3 4 5 RMOD3 1.228493e+000
C3 5 9 CMOD3 1.122242e-005
R4 5 6 RMOD4 5.100168e-001
C4 6 9 CMOD4 3.855315e-006

.MODEL CMOD1 CAP (T_MEASURED=25 TC1=1.463615e-003 TC2=-4.147800e-005)
.MODEL CMOD2 CAP (T_MEASURED=25 TC1=1.463615e-003 TC2=-4.147800e-005)
.MODEL CMOD3 CAP (T_MEASURED=25 TC1=3.749220e-004 TC2=2.806000e-006)
.MODEL CMOD4 CAP (T_MEASURED=25 TC1=3.749220e-004 TC2=2.806000e-006)
.MODEL RMOD1 RES (T_MEASURED=25 TC1=-1.770874e-003 TC2=1.281300e-005)
.MODEL RMOD2 RES (T_MEASURED=25 TC1=5.948893e-003 TC2=5.337100e-005)
.MODEL RMOD3 RES (T_MEASURED=25 TC1=5.948893e-003 TC2=5.337100e-005)
.MODEL RMOD4 RES (T_MEASURED=25 TC1=-7.138201e-003 TC2=2.153200e-005)
.MODEL DFWD D (RS=0.1 IS=8e-13 N=2.5 XTI=0 EG=0.1)

.ENDS

.SUBCKT TCJB107K006R0070 1 9

*parasitic inductance
Lesl 1 2 1.800000e-009
Rels 1 2 10

*leakage current & reverse bias effects
Rp 2 9 1.100000e+006
Dp 9 2 DFWD

*RC-ladder model of frequency effects
R1 2 3 RMOD1 9.791893e-003
C1 3 4 CMOD1 8.283219e-005
R2 3 4 RMOD2 6.120724e-002
C2 4 5 CMOD2 1.604732e-003
R3 4 5 RMOD3 2.957728e-001
C3 5 9 CMOD3 2.755296e-006
R4 5 6 RMOD4 3.351089e-002
C4 6 9 CMOD4 9.791138e-005

.MODEL CMOD1 CAP (T_MEASURED=25 TC1=1.463615e-003 TC2=-4.147800e-005)
.MODEL CMOD2 CAP (T_MEASURED=25 TC1=1.463615e-003 TC2=-4.147800e-005)
.MODEL CMOD3 CAP (T_MEASURED=25 TC1=3.749220e-004 TC2=2.806000e-006)
.MODEL CMOD4 CAP (T_MEASURED=25 TC1=3.749220e-004 TC2=2.806000e-006)
.MODEL RMOD1 RES (T_MEASURED=25 TC1=-1.770874e-003 TC2=1.281300e-005)
.MODEL RMOD2 RES (T_MEASURED=25 TC1=5.948893e-003 TC2=5.337100e-005)
.MODEL RMOD3 RES (T_MEASURED=25 TC1=5.948893e-003 TC2=5.337100e-005)
.MODEL RMOD4 RES (T_MEASURED=25 TC1=-7.138201e-003 TC2=2.153200e-005)
.MODEL DFWD D (RS=0.1 IS=8e-7 N=2.5 XTI=0 EG=0.1)

.ENDS

.SUBCKT TCJB107K006R0045 1 9

*parasitic inductance
Lesl 1 2 1.800000e-009
Rels 1 2 10

*leakage current & reverse bias effects
Rp 2 9 1.100000e+006
Dp 9 2 DFWD

*RC-ladder model of frequency effects