* Library of Transistors from ROHM Semiconductor

* 2SA1036K PNP BJT model
* Date: 2006/12/05
.MODEL 2SA1036K PNP
+ IS=60.000E-15
+ BF=194.09
+ VAF=31.854
+ IKF=1.9855
+ ISE=60.000E-15
+ NE=1.4487
+ BR=8.8685
+ VAR=100
+ IKR=59.046E-3
+ ISC=60.100E-12
+ NC=1.7430
+ NK=1.0032
+ RE=.11
+ RB=1.7439
+ RC=.25957
+ CJE=60.611E-12
+ MJE=.52038
+ CJC=21.129E-12
+ MJC=.40433
+ TF=14.874E-12
+ XTF=121.15
+ VTF=54.428
+ ITF=27.783E-3
+ TR=102.06E-9
+ XTB=1.5000

* 2SA1037AK PNP BJT model
* Date: 2006/11/30
.MODEL 2SA1037AK PNP
+ IS=70.000E-15
+ BF=266.38
+ VAF=50.700
+ IKF=.27914
+ ISE=70.000E-15
+ NE=1.7618
+ BR=1.8730
+ VAR=100
+ IKR=2.0006
+ ISC=270.82E-12
+ NC=1.7915
+ RE=.2
+ RB=7.8035
+ RC=1.0862
+ CJE=22.937E-12
+ MJE=.58268
+ CJC=11.613E-12
+ MJC=.43988
+ TF=328.92E-12
+ XTF=331.17
+ VTF=254.25
+ ITF=8.1505
+ TR=327.28E-9
+ XTB=1.5000

* 2SA1038S PNP BJT model
* Date: 2006/12/06
.MODEL 2SA1038S PNP
+ IS=60.000E-15
+ BF=410.23
+ VAF=58.369
+ IKF=.24851
+ ISE=60.000E-15
+ NE=1.6719
+ BR=.99563
+ VAR=100
+ IKR=.5153
+ ISC=26.592E-12
+ NC=1.6784
+ NK=.94666
+ RB=19.288
+ RC=2.0146
+ CJE=24.180E-12
+ MJE=.64498
+ CJC=11.927E-12
+ MJC=.47137
+ TF=381.07E-12
+ XTF=3.9957
+ VTF=6.2068
+ ITF=.11044
+ TR=790.19E-9
+ XTB=1.5000

* 2SA1514K PNP BJT model
* Date: 2006/12/06
.MODEL 2SA1514K PNP
+ IS=60.000E-15
+ BF=410.23
+ VAF=58.369
+ IKF=.24851
+ ISE=60.000E-15
+ NE=1.6719
+ BR=.99563
+ VAR=100
+ IKR=.5153
+ ISC=26.592E-12
+ NC=1.6784
+ NK=.94666
+ RB=19.288
+ RC=2.0146
+ CJE=24.180E-12
+ MJE=.64498
+ CJC=11.927E-12
+ MJC=.47137
+ TF=381.07E-12
+ XTF=3.9957
+ VTF=6.2068
+ ITF=.11044
+ TR=790.19E-9
+ XTB=1.5000

* 2SA1515S PNP BJT model
* Date: 2006/11/15
.MODEL 2SA1515S PNP
+ IS=300.00E-15
+ BF=211.92
+ VAF=100
+ IKF=5.5783
+ ISE=300.00E-15
+ NE=1.5009
+ BR=15.974
+ VAR=100
+ IKR=17.146
+ ISC=1.0298E-12
+ NC=1.1959
+ NK=.8198
+ RE=.13
+ RB=.17
+ RC=.19919
+ CJE=111.81E-12
+ MJE=.3951
+ CJC=67.857E-12
+ MJC=.45883
+ TF=910.33E-12
+ XTF=8.4788
+ VTF=10.347
+ ITF=.76902
+ TR=97.369E-9
+ XTB=1.5000

* 2SA1576A PNP BJT model
* Date: 2006/11/30
.MODEL 2SA1576A PNP
+ IS=70.000E-15
+ BF=266.38
+ VAF=50.700
+ IKF=.27914
+ ISE=70.000E-15
+ NE=1.7618
+ BR=1.8730
+ VAR=100
+ IKR=2.0006
+ ISC=270.82E-12
+ NC=1.7915
+ RE=.2
+ RB=7.8035
+ RC=1.0862
+ CJE=22.937E-12
+ MJE=.58268
+ CJC=11.613E-12
+ MJC=.43988
+ TF=328.92E-12
+ XTF=331.17
+ VTF=254.25
+ ITF=8.1505
+ TR=327.28E-9
+ XTB=1.5000

* 2SA1576UB PNP BJT model
* Date: 2006/11/30
.MODEL 2SA1576UB PNP
+ IS=70.000E-15
+ BF=266.38
+ VAF=50.700
+ IKF=.27914
+ ISE=70.000E-15
+ NE=1.7618
+ BR=1.8730
+ VAR=100
+ IKR=2.0006
+ ISC=270.82E-12
+ NC=1.7915
+ RE=.2
+ RB=7.8035
+ RC=1.0862
+ CJE=22.937E-12
+ MJE=.58268
+ CJC=11.613E-12
+ MJC=.43988
+ TF=328.92E-12
+ XTF=331.17
+ VTF=254.25
+ ITF=8.1505
+ TR=327.28E-9
+ XTB=1.5000

* 2SA1577 PNP BJT model
* Date: 2006/12/05
.MODEL 2SA1577 PNP
+ IS=60.000E-15
+ BF=194.09
+ VAF=31.854
+ IKF=1.9855
+ ISE=60.000E-15
+ NE=1.4487
+ BR=8.8685
+ VAR=100
+ IKR=59.046E-3
+ ISC=60.100E-12
+ NC=1.7430
+ NK=1.0032
+ RE=.11
+ RB=1.7439
+ RC=.25957
+ CJE=60.611E-12
+ MJE=.52038
+ CJC=21.129E-12
+ MJC=.40433
+ TF=14.874E-12
+ XTF=121.15
+ VTF=54.428
+ ITF=27.783E-3
+ TR=102.06E-9
+ XTB=1.5000

* 2SA1579 PNP BJT model
* Date: 2006/12/06
.MODEL 2SA1579 PNP
+ IS=60.000E-15
+ BF=410.23
+ VAF=58.369
+ IKF=.24851
+ ISE=60.000E-15
+ NE=1.6719
+ BR=.99563
+ VAR=100
+ IKR=.5153
+ ISC=26.592E-12
+ NC=1.6784
+ NK=.94666
+ RB=19.288
+ RC=2.0146
+ CJE=24.180E-12
+ MJE=.64498
+ CJC=11.927E-12
+ MJC=.47137
+ TF=381.07E-12
+ XTF=3.9957
+ VTF=6.2068
+ ITF=.11044
+ TR=790.19E-9
+ XTB=1.5000

* 2SA1585S PNP BJT model
* Date: 2006/12/05
.MODEL 2SA1585S PNP
+ IS=300.00E-15
+ BF=173.95
+ VAF=17.555
+ IKF=13.549
+ ISE=300.01E-15
+ NE=1.6218
+ BR=28.997
+ VAR=100
+ IKR=2.6599
+ ISC=746.57E-15
+ NC=2.5200
+ NK=.85039
+ RE=50.000E-3
+ RB=1.3440
+ RC=29.353E-3
+ CJE=200.22E-12
+ MJE=.34085
+ CJC=107.04E-12
+ MJC=.41984
+ TF=425.28E-12
+ XTF=11.859
+ VTF=18.641
+ ITF=7.9904
+ TR=17.405E-9
+ XTB=1.5000

* 2SA1774 PNP BJT model
* Date: 2006/11/30
.MODEL 2SA1774 PNP
+ IS=70.000E-15
+ BF=266.38
+ VAF=50.700
+ IKF=.27914
+ ISE=70.000E-15
+ NE=1.7618
+ BR=1.8730
+ VAR=100
+ IKR=2.0006
+ ISC=270.82E-12
+ NC=1.7915
+ RE=.2
+ RB=7.8035
+ RC=1.0862
+ CJE=22.937E-12
+ MJE=.58268
+ CJC=11.613E-12
+ MJC=.43988
+ TF=328.92E-12
+ XTF=331.17
+ VTF=254.25
+ ITF=8.1505
+ TR=327.28E-9
+ XTB=1.5000

* 2SA1774EB PNP BJT model
* Date: 2006/11/30
.MODEL 2SA1774EB PNP
+ IS=70.000E-15
+ BF=266.38
+ VAF=50.700
+ IKF=.27914
+ ISE=70.000E-15
+ NE=1.7618
+ BR=1.8730
+ VAR=100
+ IKR=2.0006
+ ISC=270.82E-12
+ NC=1.7915
+ RE=.2
+ RB=7.8035
+ RC=1.0862
+ CJE=22.937E-12
+ MJE=.58268
+ CJC=11.613E-12
+ MJC=.43988
+ TF=328.92E-12
+ XTF=331.17
+ VTF=254.25
+ ITF=8.1505
+ TR=327.28E-9
+ XTB=1.5000

* 2SA1834 PNP BJT model
* Date: 2006/11/14
.MODEL 2SA1834 PNP
+ IS=4.0000E-12
+ BF=280.41
+ VAF=100
+ IKF=23.344
+ ISE=42.670E-12
+ NE=2.3390
+ BR=165.91
+ VAR=100
+ IKR=20.412
+ ISC=4.0148E-12
+ NC=1.3261
+ RE=12.000E-3
+ RB=.65989
+ RC=23.969E-3
+ CJE=2.0856E-9
+ MJE=.47043
+ CJC=567.97E-12
+ MJC=.35621
+ TF=531.74E-12
+ XTF=8.1660
+ VTF=2.1338
+ ITF=2.0039
+ TR=14.985E-9
+ XTB=1.5000

* 2SA1952 PNP BJT model
* Date: 2006/11/27
.MODEL 2SA1952 PNP
+ IS=850.00E-15
+ BF=145.77
+ VAF=61.200
+ IKF=15.454
+ ISE=850.00E-15
+ NE=1.4001
+ BR=19.638
+ VAR=100
+ IKR=15.229
+ ISC=4.0010E-12
+ NC=3.2960
+ NK=.80526
+ RE=30.000E-3
+ RB=.14972
+ RC=30.534E-3
+ CJE=1.2460E-9
+ MJE=.38396
+ CJC=443.41E-12
+ MJC=.46114
+ TF=1.4955E-9
+ XTF=436.94
+ VTF=2.4856
+ ITF=324.41
+ TR=198.13E-9
+ XTB=1.5000

* 2SA2018 PNP BJT model
* Date: 2006/11/30
.MODEL 2SA2018 PNP
+ IS=110.00E-15
+ BF=394.09
+ VAF=21.739
+ IKF=.52024
+ ISE=110.00E-15
+ NE=1.6818
+ BR=28.439
+ VAR=100
+ IKR=1.3710
+ ISC=2.0285E-12
+ NC=2.1543
+ NK=.56117
+ RE=.1
+ RB=4.9687
+ RC=.26205
+ CJE=44.776E-12
+ MJE=.43395
+ CJC=8.9662E-12
+ MJC=.25891
+ TF=371.39E-12
+ XTF=24.384
+ VTF=41.974
+ ITF=32.155
+ TR=10.676E-9
+ XTB=1.5000

* 2SA2029 PNP BJT model
* Date: 2006/11/30
.MODEL 2SA2029 PNP
+ IS=70.000E-15
+ BF=266.38
+ VAF=50.700
+ IKF=.27914
+ ISE=70.000E-15
+ NE=1.7618
+ BR=1.8730
+ VAR=100
+ IKR=2.0006
+ ISC=270.82E-12
+ NC=1.7915
+ RE=.2
+ RB=7.8035
+ RC=1.0862
+ CJE=22.937E-12
+ MJE=.58268
+ CJC=11.613E-12
+ MJC=.43988
+ TF=328.92E-12
+ XTF=331.17
+ VTF=254.25
+ ITF=8.1505
+ TR=327.28E-9
+ XTB=1.5000

* 2SA2071 PNP BJT model
* Date: 06/11/27
.MODEL 2SA2071 PNP
+ IS=700.00E-15
+ BF=192.39
+ VAF=100
+ IKF=6.8965
+ ISE=700.00E-15
+ NE=1.7521
+ BR=24.020
+ VAR=100
+ IKR=32.385E-3
+ ISC=57.252E-12
+ NC=1.4443
+ NK=.76838
+ RE=60.000E-3
+ RB=.81034
+ RC=7.5899E-3
+ CJE=596.75E-12
+ MJE=.41455
+ CJC=158.94E-12
+ MJC=.43434
+ TF=594.99E-12
+ XTF=544.41
+ VTF=295.06
+ ITF=743.35
+ TR=173.07E-9
+ XTB=1.5000

* 2SA2072 PNP BJT model
* Date: 06/11/27
.MODEL 2SA2072 PNP
+ IS=700.00E-15
+ BF=192.39
+ VAF=100
+ IKF=6.8965
+ ISE=700.00E-15
+ NE=1.7521
+ BR=24.020
+ VAR=100
+ IKR=32.385E-3
+ ISC=57.252E-12
+ NC=1.4443
+ NK=.76838
+ RE=60.000E-3
+ RB=.81034
+ RC=7.5899E-3
+ CJE=596.75E-12
+ MJE=.41455
+ CJC=158.94E-12
+ MJC=.43434
+ TF=594.99E-12
+ XTF=544.41
+ VTF=295.06
+ ITF=743.35
+ TR=173.07E-9
+ XTB=1.5000

* 2SA2073 PNP BJT model
* Date: 06/11/27
.MODEL 2SA2073 PNP
+ IS=700.00E-15
+ BF=192.39
+ VAF=100
+ IKF=6.8965
+ ISE=700.00E-15
+ NE=1.7521
+ BR=24.020
+ VAR=100
+ IKR=32.385E-3
+ ISC=57.252E-12
+ NC=1.4443
+ NK=.76838
+ RE=60.000E-3
+ RB=.81034
+ RC=7.5899E-3
+ CJE=596.75E-12
+ MJE=.41455
+ CJC=158.94E-12
+ MJC=.43434
+ TF=594.99E-12
+ XTF=544.41
+ VTF=295.06
+ ITF=743.35
+ TR=173.07E-9
+ XTB=1.5000

* 2SA2088 PNP BJT model
* Date: 2006/12/15
.MODEL 2SA2088 PNP
+ IS=65.000E-15
+ BF=249.50
+ VAF=100
+ IKF=.69106
+ ISE=65.001E-15
+ NE=1.4594
+ BR=10.162
+ VAR=100
+ IKR=11.394
+ ISC=5.0270E-12
+ NC=1.3515
+ NK=.79748
+ RE=.5
+ RB=.81834
+ RC=.20879
+ CJE=96.030E-12
+ MJE=.77026
+ CJC=32.647E-12
+ MJC=.57832
+ TF=304.61E-12
+ XTF=11.555
+ VTF=13.588
+ ITF=8.1887
+ TR=35.022E-9
+ XTB=1.5000

* 2SA2090 PNP BJT model
* Date: 2006/12/15
.MODEL 2SA2090 PNP
+ IS=65.000E-15
+ BF=249.50
+ VAF=100
+ IKF=.69106
+ ISE=65.001E-15
+ NE=1.4594
+ BR=10.162
+ VAR=100
+ IKR=11.394
+ ISC=5.0270E-12
+ NC=1.3515
+ NK=.79748
+ RE=.5
+ RB=.81834
+ RC=.20879
+ CJE=96.030E-12
+ MJE=.77026
+ CJC=32.647E-12
+ MJC=.57832
+ TF=304.61E-12
+ XTF=11.555
+ VTF=13.588
+ ITF=8.1887
+ TR=35.022E-9
+ XTB=1.5000

* 2SA2092 PNP BJT model
* Date: 2006/11/13
.MODEL 2SA2092 PNP
+ IS=220.00E-15
+ BF=230.87
+ VAF=100
+ IKF=1.9840
+ ISE=220.00E-15
+ NE=1.5839
+ BR=5.9620
+ VAR=100
+ IKR=7.7929
+ ISC=1.4096E-12
+ NC=1.2180
+ NK=.78563
+ RE=.16
+ RB=1.0690
+ RC=.15923
+ CJE=140.16E-12
+ MJE=.34085
+ CJC=27.268E-12
+ MJC=.30828
+ TF=462.44E-12
+ XTF=9.1770
+ VTF=11.216
+ ITF=10.529
+ TR=41.861E-9
+ XTB=1.5000

* 2SA2093 PNP BJT model
* Date: 2006/11/14
.MODEL 2SA2093 PNP
+ IS=1.0000E-12
+ BF=237.46
+ VAF=100
+ IKF=3.7116
+ ISE=1.0000E-12
+ NE=1.4875
+ BR=3.4075
+ VAR=100
+ IKR=.23214
+ ISC=19.134E-12
+ NC=1.7098
+ NK=.86947
+ RE=.12
+ RB=.75694
+ RC=25.941E-3
+ CJE=248.08E-12
+ MJE=.44606
+ CJC=113.19E-12
+ MJC=.56719
+ TF=407.71E-12
+ XTF=4.1307
+ VTF=5.4891
+ ITF=5.0161
+ TR=96.895E-9
+ XTB=1.5000

* 2SA2094 PNP BJT model
* Date: 2006/11/14
.MODEL 2SA2094 PNP
+ IS=1.0000E-12
+ BF=237.46
+ VAF=100
+ IKF=3.7116
+ ISE=1.0000E-12
+ NE=1.4875
+ BR=3.4075
+ VAR=100
+ IKR=.23214
+ ISC=19.134E-12
+ NC=1.7098
+ NK=.86947
+ RE=.12
+ RB=.75694
+ RC=25.941E-3
+ CJE=248.08E-12
+ MJE=.44606
+ CJC=113.19E-12
+ MJC=.56719
+ TF=407.71E-12
+ XTF=4.1307
+ VTF=5.4891
+ ITF=5.0161
+ TR=96.895E-9
+ XTB=1.5000

* 2SA2119K PNP BJT model
* Date: 2006/11/30
.MODEL 2SA2119K PNP
+ IS=110.00E-15
+ BF=394.09
+ VAF=21.739
+ IKF=.52024
+ ISE=110.00E-15
+ NE=1.6818
+ BR=28.439
+ VAR=100
+ IKR=1.3710
+ ISC=2.0285E-12
+ NC=2.1543
+ NK=.56117
+ RE=.1
+ RB=4.9687
+ RC=.26205
+ CJE=44.776E-12
+ MJE=.43395
+ CJC=8.9662E-12
+ MJC=.25891
+ TF=371.39E-12
+ XTF=24.384
+ VTF=41.974
+ ITF=32.155
+ TR=10.676E-9
+ XTB=1.5000

* 2SA2199 PNP BJT model
* Model Generated by ROHM
* All Rights Reserved
* Commercial Use or
* Resale Restricted
* Date: 2009/06/30
.MODEL 2SA2199 PNP
+ IS=24.000E-15
+ BF=240.11
+ VAF=50
+ IKF=.25384
+ ISE=24.000E-15
+ NE=1.6026
+ BR=2.3993
+ VAR=100
+ IKR=3.4826
+ ISC=26.115E-15
+ NC=1.0949
+ NK=.92937
+ RE=.1
+ RB=17.108
+ RC=2.1193
+ CJE=11.066E-12
+ VJE=.97959
+ MJE=.46019
+ CJC=6.4279E-12
+ VJC=.68728
+ MJC=.37377
+ TF=395.88E-12
+ XTF=309.88
+ VTF=98.585
+ ITF=3.0394
+ TR=99.044E-9
+ XTB=1.5000

* 2SA854S PNP BJT model
* Date: 2006/12/05
.MODEL 2SA854S PNP
+ IS=60.000E-15
+ BF=194.09
+ VAF=31.854
+ IKF=1.9855
+ ISE=60.000E-15
+ NE=1.4487
+ BR=8.8685
+ VAR=100
+ IKR=59.046E-3
+ ISC=60.100E-12
+ NC=1.7430
+ NK=1.0032
+ RE=.11
+ RB=1.7439
+ RC=.25957
+ CJE=60.611E-12
+ MJE=.52038
+ CJC=21.129E-12
+ MJC=.40433
+ TF=14.874E-12
+ XTF=121.15
+ VTF=54.428
+ ITF=27.783E-3
+ TR=102.06E-9
+ XTB=1.5000

* 2SAR293P PNP BJT model
* Model Generated by ROHM
* All Rights Reserved
* Commercial Use or
* Resale Restricted
* Date: 2010/11/17
.MODEL 2SAR293P PNP
+ IS=500.00E-15
+ BF=444.31
+ VAF=24.600
+ IKF=2.3829
+ ISE=500.00E-15
+ NE=1.6482
+ BR=4.9950E3
+ VAR=7.7000
+ IKR=15.229
+ ISC=75.178E-12
+ NC=1.5444
+ NK=.86085
+ RE=80.000E-3
+ RB=2.3056
+ RC=.4924
+ CJE=83.703E-12
+ VJE=1.0522
+ MJE=.49837
+ CJC=23.220E-12
+ VJC=.80782
+ MJC=.46231
+ TF=451.11E-12
+ XTF=108.26
+ VTF=53.372
+ ITF=49.404
+ TR=2.0000E-9
+ XTB=1.5000

* 2SAR512P PNP BJT model
* Model Generated by ROHM
* All Rights Reserved
* Commercial Use or
* Resale Restricted
* Date: 2010/03/12
.MODEL 2SAR512P PNP
+ IS=240.00E-15
+ BF=307.48
+ VAF=23.200
+ IKF=4.9543
+ ISE=240.00E-15
+ NE=1.9535
+ BR=39.080
+ VAR=16.500
+ IKR=.47302
+ ISC=241.00E-15
+ NC=2.4667
+ NK=.94551
+ RE=40.000E-3
+ RB=2.1402
+ RC=.205
+ CJE=128.66E-12
+ VJE=.96698
+ MJE=.45709
+ CJC=50.453E-12
+ VJC=1.0394
+ MJC=.54257
+ TF=301.41E-12
+ XTF=3.9532
+ VTF=16.722
+ ITF=1.7306
+ TR=12.500E-9
+ XTB=1.5000

* 2SAR513P PNP BJT model
* Model Generated by ROHM
* All Rights Reserved
* Commercial Use or
* Resale Restricted
* Date: 2009/12/01
.MODEL 2SAR513P PNP
+ IS=220.00E-15
+ BF=295.38
+ VAF=29.700
+ IKF=1.8760
+ ISE=220.00E-15
+ NE=1.5781
+ BR=29.217
+ VAR=100
+ IKR=10.657
+ ISC=229.66E-15
+ NC=1.2092
+ NK=.79924
+ RE=40.000E-3
+ RB=1.8898
+ RC=.30868
+ CJE=119.67E-12
+ VJE=.93671
+ MJE=.39223
+ CJC=42.157E-12
+ VJC=.91676
+ MJC=.50722
+ TF=358.55E-12
+ XTF=13.139
+ VTF=20.331
+ ITF=6.8573
+ TR=17.500E-9
+ XTB=1.5000

* 2SAR514P PNP BJT model
* Model Generated by ROHM
* All Rights Reserved
* Commercial Use or
* Resale Restricted
* Date: 2010/03/12
.MODEL 2SAR514P PNP
+ IS=210.00E-15
+ BF=239.74
+ VAF=41.200
+ IKF=2.4755
+ ISE=474.84E-15
+ NE=1.7638
+ BR=9.1977
+ VAR=26.200
+ IKR=.91518
+ ISC=852.09E-15
+ NC=1.2356
+ NK=.98791
+ RE=80.000E-3
+ RB=2.5397
+ RC=.43853
+ CJE=120.71E-12
+ VJE=.74112
+ MJE=.3555
+ CJC=21.650E-12
+ VJC=.78879
+ MJC=.29529
+ TF=378.45E-12
+ XTF=12.388
+ VTF=8.5169
+ ITF=4.1911
+ TR=76.500E-9
+ XTB=1.5000

* 2SAR522EB PNP BJT model
* Model Generated by ROHM
* All Rights Reserved
* Commercial Use or
* Resale Restricted
* Date: 2010/07/14
.MODEL 2SAR522EB PNP
+ IS=20.000E-15
+ BF=311.65
+ VAF=25.800
+ IKF=.59878
+ ISE=20.000E-15
+ NE=1.4546
+ BR=10.057
+ VAR=6.1100
+ IKR=53.963E-3
+ ISC=413.88E-15
+ NC=1.5497
+ NK=.77781
+ RE=.25
+ RB=5.2646
+ RC=.45936
+ CJE=13.254E-12
+ VJE=.92613
+ MJE=.41651
+ CJC=10.583E-12
+ VJC=1.2414
+ MJC=.55143
+ TF=361.87E-12
+ XTF=8.6164
+ VTF=20.767
+ ITF=.86632
+ TR=25.500E-9
+ XTB=1.5000

* 2SAR522UB PNP BJT model
* Model Generated by ROHM
* All Rights Reserved
* Commercial Use or
* Resale Restricted
* Date: 2010/07/14
.MODEL 2SAR522UB PNP
+ IS=20.000E-15
+ BF=311.65
+ VAF=25.800
+ IKF=.59878
+ ISE=20.000E-15
+ NE=1.4546
+ BR=10.057
+ VAR=6.1100
+ IKR=53.963E-3
+ ISC=413.88E-15
+ NC=1.5497
+ NK=.77781
+ RE=.25
+ RB=5.2646
+ RC=.45936
+ CJE=13.254E-12
+ VJE=.92613
+ MJE=.41651
+ CJC=10.583E-12
+ VJC=1.2414
+ MJC=.55143
+ TF=361.87E-12
+ XTF=8.6164
+ VTF=20.767
+ ITF=.86632
+ TR=25.500E-9
+ XTB=1.5000

* 2SAR523EB PNP BJT model
* Model Generated by ROHM
* All Rights Reserved
* Commercial Use or
* Resale Restricted
* Date: 2010/07/14
.MODEL 2SAR523EB PNP
+ IS=30.000E-15
+ BF=261.99
+ VAF=49.600
+ IKF=.32531
+ ISE=30.000E-15
+ NE=1.6165
+ BR=1.8916
+ VAR=15.600
+ IKR=4.7366
+ ISC=115.40E-15
+ NC=1.2015
+ NK=.86916
+ RE=.5
+ RB=6.9265
+ RC=1.0386
+ CJE=11.762E-12
+ VJE=1.0147
+ MJE=.47359
+ CJC=6.6730E-12
+ VJC=.7841
+ MJC=.47924
+ TF=447.20E-12
+ XTF=113.42
+ VTF=41.263
+ ITF=2.8279
+ TR=123.00E-9
+ XTB=1.5000

* 2SAR523UB PNP BJT model
* Model Generated by ROHM
* All Rights Reserved
* Commercial Use or
* Resale Restricted
* Date: 2010/07/14
.MODEL 2SAR523UB PNP
+ IS=30.000E-15
+ BF=261.99
+ VAF=49.600
+ IKF=.32531
+ ISE=30.000E-15
+ NE=1.6165
+ BR=1.8916
+ VAR=15.600
+ IKR=4.7366
+ ISC=115.40E-15
+ NC=1.2015
+ NK=.86916
+ RE=.5
+ RB=6.9265
+ RC=1.0386
+ CJE=11.762E-12
+ VJE=1.0147
+ MJE=.47359
+ CJC=6.6730E-12
+ VJC=.7841
+ MJC=.47924
+ TF=447.20E-12
+ XTF=113.42
+ VTF=41.263
+ ITF=2.8279
+ TR=123.00E-9
+ XTB=1.5000

* 2SAR533D PNP BJT model
* Model Generated by ROHM
* All Rights Reserved
* Commercial Use or
* Resale Restricted
* Date: 2010/03/12
.MODEL 2SAR533D PNP
+ IS=440.00E-15
+ BF=279.15
+ VAF=26
+ IKF=8.0272
+ ISE=440.00E-15
+ NE=1.5728
+ BR=16.298
+ VAR=20.300
+ IKR=.91246
+ ISC=1.4308E-12
+ NC=2.2472
+ NK=.99016
+ RE=45.000E-3
+ RB=.29167
+ RC=.1656
+ CJE=292.97E-12
+ VJE=.92742
+ MJE=.4422
+ CJC=88.275E-12
+ VJC=1.0381
+ MJC=.55271
+ TF=406.22E-12
+ XTF=3.7885
+ VTF=12.425
+ ITF=1.8659
+ TR=32.700E-9
+ XTB=1.5000

* 2SAR533P PNP BJT model
* Model Generated by ROHM
* All Rights Reserved
* Commercial Use or
* Resale Restricted
* Date: 2010/03/12
.MODEL 2SAR533P PNP
+ IS=440.00E-15
+ BF=279.15
+ VAF=26
+ IKF=8.0272
+ ISE=440.00E-15
+ NE=1.5728
+ BR=16.298
+ VAR=20.300
+ IKR=.91246
+ ISC=1.4308E-12
+ NC=2.2472
+ NK=.99016
+ RE=45.000E-3
+ RB=.29167
+ RC=.1656
+ CJE=292.97E-12
+ VJE=.92742
+ MJE=.4422
+ CJC=88.275E-12
+ VJC=1.0381
+ MJC=.55271
+ TF=406.22E-12
+ XTF=3.7885
+ VTF=12.425
+ ITF=1.8659
+ TR=32.700E-9
+ XTB=1.5000

* 2SAR542D PNP BJT model
* Model Generated by ROHM
* All Rights Reserved
* Commercial Use or
* Resale Restricted
* Date: 2010/03/12
.MODEL 2SAR542D PNP
+ IS=1.0000E-12
+ BF=324.46
+ VAF=39.700
+ IKF=15.590
+ ISE=1.0000E-12
+ NE=1.8237
+ BR=53.188
+ VAR=9
+ IKR=.73045
+ ISC=23.931E-12
+ NC=2.5940
+ NK=.92781
+ RE=25.000E-3
+ RB=.57452
+ RC=42.636E-3
+ CJE=233.18E-12
+ VJE=1.0430
+ MJE=.48765
+ CJC=148.41E-12
+ VJC=1.0315
+ MJC=.55325
+ TF=569.73E-12
+ XTF=13.952
+ VTF=3.5264
+ ITF=2.8917
+ TR=10.300E-9
+ XTB=1.5000

* 2SAR542P PNP BJT model
* Model Generated by ROHM
* All Rights Reserved
* Commercial Use or
* Resale Restricted
* Date: 2010/03/12
.MODEL 2SAR542P PNP
+ IS=1.0000E-12
+ BF=324.46
+ VAF=39.700
+ IKF=15.590
+ ISE=1.0000E-12
+ NE=1.8237
+ BR=53.188
+ VAR=9
+ IKR=.73045
+ ISC=23.931E-12
+ NC=2.5940
+ NK=.92781
+ RE=25.000E-3
+ RB=.57452
+ RC=42.636E-3
+ CJE=233.18E-12
+ VJE=1.0430
+ MJE=.48765
+ CJC=148.41E-12
+ VJC=1.0315
+ MJC=.55325
+ TF=569.73E-12
+ XTF=13.952
+ VTF=3.5264
+ ITF=2.8917
+ TR=10.300E-9
+ XTB=1.5000

* 2SAR543D NPN BJT model
* Model Generated by ROHM
* All Rights Reserved
* Commercial Use or
* Resale Restricted
* Date: 2010/07/12
.MODEL 2SAR543D PNP
+ IS=800.00E-15
+ BF=304.13
+ VAF=58.300
+ IKF=11.665
+ ISE=800.01E-15
+ NE=1.6617
+ BR=31.813
+ VAR=11.600
+ IKR=5.8107
+ ISC=27.232E-12
+ NC=2.1822
+ NK=.98388
+ RE=20.000E-3
+ RB=.23822
+ RC=72.738E-3
+ CJE=446.41E-12
+ VJE=1.0456
+ MJE=.48681
+ CJC=120.87E-12
+ VJC=.74451
+ MJC=.46428
+ TF=389.75E-12
+ XTF=4.2837
+ VTF=26.023
+ ITF=1.9431
+ TR=15.100E-9
+ XTB=1.5000

* 2SAR543R NPN BJT model
* Model Generated by ROHM
* All Rights Reserved
* Commercial Use or
* Resale Restricted
* Date: 2010/07/12
.MODEL 2SAR543R PNP
+ IS=800.00E-15
+ BF=304.13
+ VAF=58.300
+ IKF=11.665
+ ISE=800.01E-15
+ NE=1.6617
+ BR=31.813
+ VAR=11.600
+ IKR=5.8107
+ ISC=27.232E-12
+ NC=2.1822
+ NK=.98388
+ RE=20.000E-3
+ RB=.23822
+ RC=72.738E-3
+ CJE=446.41E-12
+ VJE=1.0456
+ MJE=.48681
+ CJC=120.87E-12
+ VJC=.74451
+ MJC=.46428
+ TF=389.75E-12
+ XTF=4.2837
+ VTF=26.023
+ ITF=1.9431
+ TR=15.100E-9
+ XTB=1.5000

* 2SAR544D PNP BJT model
* Model Generated by ROHM
* All Rights Reserved
* Commercial Use or
* Resale Restricted
* Date: 2010/03/12
.MODEL 2SAR544D PNP
+ IS=800.00E-15
+ BF=212.07
+ VAF=31.300
+ IKF=8.2359
+ ISE=800.00E-15
+ NE=1.7883
+ BR=14.147
+ VAR=17.900
+ IKR=1.0101
+ ISC=22.559E-12
+ NC=1.5653
+ NK=.81025
+ RE=30.000E-3
+ RB=.87781
+ RC=.13136
+ CJE=472.89E-12
+ VJE=.97942
+ MJE=.46473
+ CJC=113.51E-12
+ VJC=.76024
+ MJC=.47779
+ TF=401.61E-12
+ XTF=2.3288
+ VTF=12.359
+ ITF=1.0144
+ TR=54.500E-9
+ XTB=1.5000

* 2SAR544P PNP BJT model
* Model Generated by ROHM
* All Rights Reserved
* Commercial Use or
* Resale Restricted
* Date: 2010/03/12
.MODEL 2SAR544P PNP
+ IS=800.00E-15
+ BF=212.07
+ VAF=31.300
+ IKF=8.2359
+ ISE=800.00E-15
+ NE=1.7883
+ BR=14.147
+ VAR=17.900
+ IKR=1.0101
+ ISC=22.559E-12
+ NC=1.5653
+ NK=.81025
+ RE=30.000E-3
+ RB=.87781
+ RC=.13136
+ CJE=472.89E-12
+ VJE=.97942
+ MJE=.46473
+ CJC=113.51E-12
+ VJC=.76024
+ MJC=.47779
+ TF=401.61E-12
+ XTF=2.3288
+ VTF=12.359
+ ITF=1.0144
+ TR=54.500E-9
+ XTB=1.5000

* 2SAR544R PNP BJT model
* Model Generated by ROHM
* All Rights Reserved
* Commercial Use or
* Resale Restricted
* Date: 2010/03/09
.MODEL 2SAR544R PNP
+ IS=800.00E-15
+ BF=212.07
+ VAF=31.300
+ IKF=8.2359
+ ISE=800.00E-15
+ NE=1.7883
+ BR=14.147
+ VAR=17.900
+ IKR=1.0101
+ ISC=22.559E-12
+ NC=1.5653
+ NK=.81025
+ RE=30.000E-3
+ RB=.87781
+ RC=.13136
+ CJE=472.89E-12
+ VJE=.97942
+ MJE=.46473
+ CJC=113.51E-12
+ VJC=.76024
+ MJC=.47779
+ TF=401.61E-12
+ XTF=2.3288
+ VTF=12.359
+ ITF=1.0144
+ TR=54.500E-9
+ XTB=1.5000

* 2SAR552P PNP BJT model
* Model Generated by ROHM
* All Rights Reserved
* Commercial Use or
* Resale Restricted
* Date: 2010/03/12
.MODEL 2SAR552P PNP
+ IS=520.00E-15
+ BF=315.13
+ VAF=26.700
+ IKF=3.4558
+ ISE=520.00E-15
+ NE=1.7403
+ BR=49.558
+ VAR=15.400
+ IKR=.66084
+ ISC=936.07E-15
+ NC=2.8590
+ NK=.62209
+ RE=35.000E-3
+ RB=.75418
+ RC=.12127
+ CJE=242.81E-12
+ VJE=1.0272
+ MJE=.49015
+ CJC=84.668E-12
+ VJC=1.0523
+ MJC=.55603
+ TF=409.23E-12
+ XTF=527.57
+ VTF=34.767
+ ITF=68.903
+ TR=6.1000E-9
+ XTB=1.5000

* 2SAR553P PNP BJT model
* Model Generated by ROHM
* All Rights Reserved
* Commercial Use or
* Resale Restricted
* Date: 2010/03/12
.MODEL 2SAR553P PNP
+ IS=380.00E-15
+ BF=292.25
+ VAF=34.200
+ IKF=5.8054
+ ISE=380.00E-15
+ NE=1.6438
+ BR=15.006
+ VAR=18.200
+ IKR=.99968
+ ISC=588.69E-15
+ NC=2.3881
+ NK=.9836
+ RE=30.000E-3
+ RB=1.4634
+ RC=.20116
+ CJE=254.26E-12
+ VJE=.92645
+ MJE=.44177
+ CJC=78.299E-12
+ VJC=1.0229
+ MJC=.5476
+ TF=383.08E-12
+ XTF=2.0291
+ VTF=10.898
+ ITF=.99144
+ TR=27.600E-9
+ XTB=1.5000

* 2SAR554P PNP BJT model
* Model Generated by ROHM
* All Rights Reserved
* Commercial Use or
* Resale Restricted
* Date: 2010/03/12
.MODEL 2SAR554P PNP
+ IS=400.00E-15
+ BF=222.84
+ VAF=30.600
+ IKF=5.0617
+ ISE=400.03E-15
+ NE=1.6004
+ BR=10.181
+ VAR=20.600
+ IKR=6.6435
+ ISC=1.0067E-12
+ NC=1.2721
+ NK=.99646
+ RE=40.000E-3
+ RB=1.7344
+ RC=.27337
+ CJE=188.26E-12
+ VJE=.98456
+ MJE=.46391
+ CJC=50.752E-12
+ VJC=.7732
+ MJC=.47558
+ TF=413.28E-12
+ XTF=6.8712
+ VTF=5.9615
+ ITF=2.6873
+ TR=52.300E-9
+ XTB=1.5000

* 2SB1181 PNP BJT model
* Date: 2006/12/04
.MODEL 2SB1181 PNP
+ IS=220.00E-15
+ BF=140.43
+ VAF=23.200
+ IKF=7.9366
+ ISE=220.00E-15
+ NE=1.6291
+ BR=30.282
+ VAR=100
+ IKR=13.783
+ ISC=274.44E-12
+ NC=1.5976
+ NK=.83042
+ RE=50.000E-3
+ RB=.6938
+ RC=.149
+ CJE=311.85E-12
+ MJE=.35932
+ CJC=89.315E-12
+ MJC=.50953
+ TF=714.69E-12
+ XTF=11.729
+ VTF=22.370
+ ITF=7.7977
+ TR=101.04E-9
+ XTB=1.5000

* 2SB1182 PNP BJT model
* Date: 2006/11/24
.MODEL 2SB1182 PNP
+ IS=600.00E-15
+ BF=207.37
+ VAF=16.367
+ IKF=5.4337
+ ISE=600.00E-15
+ NE=1.3729
+ BR=102.31
+ VAR=100
+ IKR=92.045E-3
+ ISC=97.084E-12
+ NC=1.4840
+ NK=.7623
+ RE=50.000E-3
+ RB=1.1437
+ RC=75.161E-3
+ CJE=370.26E-12
+ MJE=.41192
+ CJC=120.01E-12
+ VJC=.89798
+ MJC=.4793
+ TF=1.4064E-9
+ XTF=39.840
+ VTF=32.227
+ ITF=14.875
+ TR=83.087E-9
+ XTB=1.5000

* 2SB1197K PNP BJT model
* Date: 2006/12/15
.MODEL 2SB1197K PNP
+ IS=300.00E-15
+ BF=238.66
+ VAF=100
+ IKF=7.9962
+ ISE=300.00E-15
+ NE=1.8179
+ BR=24.969
+ VAR=100
+ IKR=8.6844
+ ISC=20.673E-12
+ NC=1.4876
+ NK=1.2295
+ RE=.1
+ RB=1.5116
+ RC=.15941
+ CJE=127.81E-12
+ MJE=.41399
+ CJC=41.583E-12
+ MJC=.46676
+ TF=475.21E-12
+ XTF=26.772
+ VTF=68.517
+ ITF=13.643
+ TR=36.831E-9
+ XTB=1.5000

* 2SB1198K PNP BJT model
* Date: 2006/12/15
.MODEL 2SB1198K PNP
+ IS=270.00E-15
+ BF=202.53
+ VAF=25
+ IKF=4.9986
+ ISE=270.00E-15
+ NE=1.5975
+ BR=6.4472
+ VAR=100
+ IKR=.718
+ ISC=8.7772E-12
+ NC=1.5323
+ NK=1.2944
+ RE=.15
+ RB=1.5052
+ RC=.12666
+ CJE=153.08E-12
+ MJE=.50256
+ CJC=41.583E-12
+ MJC=.46676
+ TF=678.31E-12
+ XTF=25.767
+ VTF=53.412
+ ITF=10.004
+ TR=134.09E-9
+ XTB=1.5000

* 2SB1237 PNP BJT model
* Date: 2006/11/15
.MODEL 2SB1237 PNP
+ IS=300.00E-15
+ BF=211.92
+ VAF=100
+ IKF=5.5783
+ ISE=300.00E-15
+ NE=1.5009
+ BR=15.974
+ VAR=100
+ IKR=17.146
+ ISC=1.0298E-12
+ NC=1.1959
+ NK=.8198
+ RE=.13
+ RB=.17
+ RC=.19919
+ CJE=111.81E-12
+ MJE=.3951
+ CJC=67.857E-12
+ MJC=.45883
+ TF=910.33E-12
+ XTF=8.4788
+ VTF=10.347
+ ITF=.76902
+ TR=97.369E-9
+ XTB=1.5000

* 2SB1238 PNP BJT model
* Date: 2006/11/17
.MODEL 2SB1238 PNP
+ IS=300.00E-15
+ BF=228.01
+ VAF=20.700
+ IKF=.85858
+ ISE=300.00E-15
+ NE=1.3435
+ BR=14.770
+ VAR=100
+ IKR=6.6440
+ ISC=13.781E-12
+ NC=1.3072
+ NK=.6702
+ RE=.1
+ RB=.45989
+ RC=.14477
+ CJE=143.88E-12
+ MJE=.42942
+ CJC=51.978E-12
+ MJC=.46676
+ TF=1.0758E-9
+ XTF=51.624
+ VTF=43.034
+ ITF=30.530
+ TR=168.08E-9
+ XTB=1.5000

* 2SB1240 PNP BJT model
* Date: 2006/11/24
.MODEL 2SB1240 PNP
+ IS=600.00E-15
+ BF=207.37
+ VAF=16.367
+ IKF=5.4337
+ ISE=600.00E-15
+ NE=1.3729
+ BR=102.31
+ VAR=100
+ IKR=92.045E-3
+ ISC=97.084E-12
+ NC=1.4840
+ NK=.7623
+ RE=50.000E-3
+ RB=1.1437
+ RC=75.161E-3
+ CJE=370.26E-12
+ MJE=.41192
+ CJC=120.01E-12
+ VJC=.89798
+ MJC=.4793
+ TF=1.4064E-9
+ XTF=39.840
+ VTF=32.227
+ ITF=14.875
+ TR=83.087E-9
+ XTB=1.5000

* 2SB1241 PNP BJT model
* Date: 2006/12/04
.MODEL 2SB1241 PNP
+ IS=220.00E-15
+ BF=140.43
+ VAF=23.200
+ IKF=7.9366
+ ISE=220.00E-15
+ NE=1.6291
+ BR=30.282
+ VAR=100
+ IKR=13.783
+ ISC=274.44E-12
+ NC=1.5976
+ NK=.83042
+ RE=50.000E-3
+ RB=.6938
+ RC=.149
+ CJE=311.85E-12
+ MJE=.35932
+ CJC=89.315E-12
+ MJC=.50953
+ TF=714.69E-12
+ XTF=11.729
+ VTF=22.370
+ ITF=7.7977
+ TR=101.04E-9
+ XTB=1.5000

* 2SB1243 PNP BJT model
* Date: 2006/11/16
.MODEL 2SB1243 PNP
+ IS=2.3000E-12
+ BF=100.72
+ VAF=6.2769
+ IKF=4.3760
+ ISE=2.3000E-12
+ NE=1.3995
+ BR=77.572
+ VAR=100
+ IKR=15.080
+ ISC=377.34E-12
+ NC=1.4838
+ NK=.67175
+ RE=.1
+ RB=.38561
+ RC=15.139E-3
+ CJE=983.02E-12
+ MJE=.58268
+ CJC=156.05E-12
+ MJC=.41274
+ TF=2.0777E-9
+ XTF=11.061
+ VTF=14.341
+ ITF=9.7241
+ TR=43.264E-9
+ XTB=1.5000

* 2SB1260 PNP BJT model
* Date: 2006/12/04
.MODEL 2SB1260 PNP
+ IS=220.00E-15
+ BF=140.43
+ VAF=23.200
+ IKF=7.9366
+ ISE=220.00E-15
+ NE=1.6291
+ BR=30.282
+ VAR=100
+ IKR=13.783
+ ISC=274.44E-12
+ NC=1.5976
+ NK=.83042
+ RE=50.000E-3
+ RB=.6938
+ RC=.149
+ CJE=311.85E-12
+ MJE=.35932
+ CJC=89.315E-12
+ MJC=.50953
+ TF=714.69E-12
+ XTF=11.729
+ VTF=22.370
+ ITF=7.7977
+ TR=101.04E-9
+ XTB=1.5000

* 2SB1275 PNP BJT model
* Date: 2006/11/20
.MODEL 2SB1275 PNP
+ IS=450.00E-15
+ BF=75.284
+ VAF=6.5824
+ IKF=1.0712
+ ISE=450.00E-15
+ NE=1.3466
+ BR=318.62
+ VAR=100
+ IKR=4.1919
+ ISC=1.4330E-9
+ NC=1.6223
+ NK=.57797
+ RE=.1
+ RB=1.4759
+ RC=.16193
+ CJE=327.67E-12
+ MJE=.58268
+ CJC=103.96E-12
+ MJC=.46676
+ TF=2.9216E-9
+ XTF=199.17
+ VTF=22.382
+ ITF=39.180
+ TR=273.01E-9
+ XTB=1.5000

* 2SB1316 DARLINGTON NPN BJT model
* Date: 2006/12/12
* BJTs with a diode and resistors
****************C B E
.SUBCKT 2SB1316 1 2 3
Q1 1 2 4 Q1model
Q2 1 4 3 Q2model 3.932
D1 1 3 Dmodel
R1 2 4 3.500E3
R2 4 3 300
.MODEL Dmodel D
+ IS=2.764E-9
+ RS=.6111
+ N=1.864
+ XTI=3
+ CJO=10.00E-21
+ VJ=1
+ M=.5
+ FC=.5
.MODEL Q1model PNP
+ IS=71.62E-15
+ BF=700
+ NF=1
+ VAF=5
+ IKF=50.00E-3
+ ISE=652.5E-15
+ NE=1.399
+ BR=25.61E-3
+ NR=1
+ VAR=100
+ IKR=1.322
+ ISC=8.491E-12
+ NC=1.378
+ RB=14.53
+ NK=.55
+ RE=0
+ RC=.1037
+ EG=1.110
+ CJE=153.4E-12
+ VJE=.75
+ MJE=.3329
+ TF=1.328E-9
+ XTF=1
+ VTF=10
+ ITF=10.00E-3
+ CJC=69.10E-12
+ VJC=.75
+ MJC=.3818
+ XCJC=.9
+ FC=.5
+ TR=35.02E-6
.MODEL Q2model PNP
+ IS=71.62E-15
+ BF=700
+ NF=1
+ VAF=5
+ IKF=50.00E-3
+ ISE=652.5E-15
+ NE=1.399
+ BR=25.61E-3
+ NR=1
+ VAR=100
+ IKR=1.322
+ ISC=8.491E-12
+ NC=1.378
+ RB=14.53
+ NK=.55
+ RE=0
+ RC=.1037
+ EG=1.110
+ CJE=153.4E-12
+ VJE=.75
+ MJE=.3329
+ TF=1.328E-9
+ XTF=1
+ VTF=10
+ ITF=10.00E-3
+ CJC=0
+ VJC=.75
+ MJC=.3818
+ XCJC=.9
+ FC=.5
+ TR=35.02E-6
.ENDS 2SB1316

* 2SB1412 PNP BJT model
* Date: 2006/11/14
.MODEL 2SB1412 PNP
+ IS=500.00E-15
+ BF=167.27
+ VAF=6.0750
+ IKF=13.423
+ ISE=500.00E-15
+ NE=1.8133
+ BR=101.30
+ VAR=100
+ IKR=.95905
+ ISC=2.4533E-12
+ NC=1.2497
+ NK=.74369
+ RE=17.000E-3
+ RB=.4
+ RC=35.569E-3
+ CJE=559.05E-12
+ MJE=.3951
+ CJC=152.17E-12
+ MJC=.28029
+ TF=715.49E-12
+ XTF=327.81
+ VTF=51.553
+ ITF=55.906
+ TR=9.7739E-9
+ XTB=1.5000

* 2SB1424 PNP BJT model
* Date: 2006/12/05
.MODEL 2SB1424 PNP
+ IS=300.00E-15
+ BF=173.95
+ VAF=17.555
+ IKF=13.549
+ ISE=300.01E-15
+ NE=1.6218
+ BR=28.997
+ VAR=100
+ IKR=2.6599
+ ISC=746.57E-15
+ NC=2.5200
+ NK=.85039
+ RE=50.000E-3
+ RB=1.3440
+ RC=29.353E-3
+ CJE=200.22E-12
+ MJE=.34085
+ CJC=107.04E-12
+ MJC=.41984
+ TF=425.28E-12
+ XTF=11.859
+ VTF=18.641
+ ITF=7.9904
+ TR=17.405E-9
+ XTB=1.5000

* 2SB1427 PNP BJT model
* Date: 2006/11/20
.MODEL 2SB1427 PNP
+ IS=1.0000E-12
+ BF=465.72
+ VAF=9.7000
+ IKF=2.4524
+ ISE=1.0000E-12
+ NE=1.9208
+ BR=100.88
+ VAR=100
+ IKR=73.071E-3
+ ISC=160.34E-12
+ NC=1.7538
+ NK=.73634
+ RE=60.000E-3
+ RB=.79297
+ RC=36.877E-3
+ CJE=200.22E-12
+ MJE=.34085
+ CJC=82.920E-12
+ MJC=.38184
+ TF=898.85E-12
+ XTF=20.372
+ VTF=28.697
+ ITF=5.3648
+ TR=47.396E-9
+ XTB=1.5000

* 2SB1443 PNP BJT model
* Date: 2006/11/16
.MODEL 2SB1443 PNP
+ IS=270.00E-15
+ BF=215.55
+ VAF=46.700
+ IKF=6.7887
+ ISE=270.00E-15
+ NE=1.5952
+ BR=9.3196
+ VAR=100
+ IKR=.37039
+ ISC=7.9519E-12
+ NC=1.3623
+ NK=.95496
+ RE=25.000E-3
+ RB=.76786
+ RC=36.609E-3
+ CJE=1.0237E-9
+ MJE=.75484
+ CJC=138.03E-12
+ MJC=.50476
+ TF=187.35E-12
+ XTF=13.684
+ VTF=.70136
+ ITF=.65647
+ TR=97.124E-9
+ XTB=1.5000

* 2SB1561 PNP BJT model
* Date: 2006/11/17
.MODEL 2SB1561 PNP
+ IS=300.00E-15
+ BF=123.73
+ VAF=10.700
+ IKF=4.2781
+ ISE=300.00E-15
+ NE=1.3969
+ BR=214.02
+ VAR=100
+ IKR=.15167
+ ISC=1.2849E-9
+ NC=1.8301
+ NK=.83786
+ RE=40.000E-3
+ RB=.80606
+ RC=28.934E-3
+ CJE=400.45E-12
+ MJE=.34085
+ CJC=71.842E-12
+ MJC=.42777
+ TF=693.72E-12
+ XTF=325.95
+ VTF=.369
+ ITF=19.358
+ TR=59.659E-9
+ XTB=1.5000

* 2SB1590K PNP BJT model
* Date: 2006/12/14
.MODEL 2SB1590K PNP
+ IS=200.00E-15
+ BF=178.33
+ VAF=12.200
+ IKF=3
+ ISE=829.23E-15
+ NE=2.0937
+ BR=41.925
+ VAR=100
+ IKR=.40214
+ ISC=17.775E-12
+ NC=2.8896
+ NK=.50213
+ RE=80.000E-3
+ RB=2.9159
+ RC=99.649E-3
+ CJE=143.88E-12
+ MJE=.42942
+ CJC=65.705E-12
+ MJC=.44672
+ TF=595.44E-12
+ XTF=10
+ VTF=10
+ ITF=5.5000
+ TR=8.5511E-9
+ XTB=1.5000

* 2SB1689 PNP BJT model
* Date: 2006/12/14
.MODEL 2SB1689 PNP
+ IS=500.00E-15
+ BF=430.25
+ VAF=8.5496
+ IKF=1.1522
+ ISE=500.00E-15
+ NE=1.7681
+ BR=62.537
+ VAR=100
+ IKR=.95012
+ ISC=791.42E-15
+ NC=2.9288
+ NK=.62728
+ RE=50.000E-3
+ RB=2.4406
+ RC=87.668E-3
+ CJE=98.302E-12
+ MJE=.58268
+ CJC=35.215E-12
+ MJC=.40433
+ TF=323.63E-12
+ XTF=8.8486
+ VTF=11.678
+ ITF=7.9126
+ TR=6.2090E-9
+ XTB=1.5000

* 2SB1690 PNP BJT model
* Date: 2006/12/01
.MODEL 2SB1690 PNP
+ IS=260.00E-15
+ BF=435.07
+ VAF=11.229
+ IKF=1.2673
+ ISE=260.00E-15
+ NE=2.0356
+ BR=214.53
+ VAR=100
+ IKR=6.0651E-3
+ ISC=464.05E-15
+ NC=2.5092
+ NK=.20425
+ RE=40.000E-3
+ RB=3.1284
+ RC=35.729E-3
+ CJE=192.88E-12
+ MJE=.6628
+ CJC=87.706E-12
+ MJC=.66324
+ TF=275.90E-12
+ XTF=3.5054
+ VTF=92.551
+ ITF=2.3203
+ TR=2.2345E-9
+ XTB=1.5000
