***************
*[Disclaimer]
*	This model file is made by typical data, 
*	and the manufacturing dispersions are not included.
*	Moreover, it does not guarantee all of the simulation
*	result of execution by using this. 
*	This model is being supplied as a aid to confirm the validity of
*	a design approach and help to select surrounding component values
*	While it reflects reasonably close to similarity to the actual
*	device in terms of performance, it is not suggested as a
*	replacement for breadboarding.
*	Simulation should be used as a forerunner or a supplement
*	to a traditional lab testing.
*
*[Copyright]
*Copyright 2010 ROHM Co., Ltd.
*
*[Component]		BD46xx1 series
*
*[Manufacturer]		ROHM Co., Ltd.
*
***************

* 

***************VERSION HYSTORY***************
*1.0 - 06/26/09: 	Created by Ryan Ordiales from indications of Sho Sai
*1.1 - 10/22/09:	Modified by Ryan Ordiales, Enrico T. Felicilda. Removed all connection to 0
*			and connected to GND. Created GND pin to comp1, comp2 and comp3
*			subcircuit. Removed connection to "Global 0".
*$
.subckt bd46341 VOUT VDD ER GND 
***************comp1 block***************
*                      VDD
*                   out |
*                in2 |  |
*             in1 |  |  |
*              |  |  |  |
.subckt comp1 11 10 18 17 GND
.model DZ D(Is=0.05n rs=0.001 bv=10 Ibv=1)
E1 12 GND 11 10 10k
R1 12 13 100k
C1 13 GND 100p
D1 GND 13 DZ
M4 18 13 17 17 PMOS2 l=.6u w=8000u
Rpd 18 GND 30k
***vto is set for the computation of VOLP=0.7V
***gate voltage swings from -0.5V to 10V
.MODEL PMOS2 PMOS (level=1 vto=-1.476)
.ends comp1
*$
***************comp2 block***************
*                      VDD
*                   out |
*                in2 |  |
*             in1 |  |  |
*              |  |  |  |
.subckt comp2 11 10 18 17 GND
.model DZ D(Is=0.05n rs=0.001 bv=10 Ibv=1)
E1 12 GND 11 10 100k
R1 12 13 100k
C1 13 GND 100p
D1 GND 13 DZ
M6 18 13 17 17 PMOS20 l=1u w=10000u
.MODEL PMOS20 PMOS (level=1 vto=0)
Rpd 18 GND 30k
.ends comp2
*$
***************comp3 block***************
*                out
*             inn |  
*           inp | |  
*             | | |  
.subckt comp3 1 2 4 GND
.model DZ D(Is=.05u Rs=0.001 bv=5 Ibv=1)
E1 3 GND 1 2 100k
R1 3 4 100k
C1 4 GND 10p
D1 GND 4 DZ
.ends comp3
*$
***************VDET, Hysteresis and Release Block***************
Cct CT GND 14.82n
X1 11 10 702 29 GND comp2
Vref 10 GND 1
R1b 29 11 20meg
R100 11 16 7.78210meg
R101 16 GND 0.55123meg
M3 16 18 GND GND NMOS2 l=1u w=1000u
.MODEL NMOS2 NMOS (level=1 vto=.1)
.MODEL PMOS1 PMOS (level=1)
.MODEL NMOS1 NMOS (level=1)
***************TPLH delay block***************
M7 CT 18 GND GND NMOS22 l=1u w=10000u
.MODEL NMOS22 NMOS (level=1 vto=0)
Rct 29 CT 10meg
****VCTH circuit****
Rdet1 29 19 10meg
Rdet2 19 GND 10meg
***************TPHL delay block***************
X52 CT 19 20 29 GND comp1
T1 20 GND 222 GND Z0=1meg TD=49.9u
R500 222 GND 1meg
E500 333 GND poly(2) 20 GND 222 GND 0 0 0 0 2
***************ER block***************
X700 ER 700 701 GND comp3
V700 700 GND 1.43
R700 701 GND 100k
E502 18 GND poly(2) 701 GND 702 GND 0 1 1 0 -0.2
Rercc ER GND 2meg
***************driver stage block***************
Mdrv 29 333 334 GND NMOS10 l=1u w=8000u
Rdrv 334 GND 100k
.MODEL NMOS10 NMOS (level=1 vto=0)
***************Open drain NMOS output block***************
Mout1 VOUT 334 GND GND NMOS3 l=10u w=3004u
Mout2 VOUT 334 VDD VDD PMOS3 l=10u w=509.40u
.MODEL PMOS3 PMOS (level=1 vto=-.5)
.MODEL NMOS3 NMOS (level=1 vto=.5)
**circuit current
M1cc 65 65 VDD VDD PMOS10 l=10u w=100u
R2cc VDD 65 10meg
D1cc GND 65 DZ2
D2cc 65 66 DZ3
.model DZ2 D(Is=0.94u Rs=250k)
.model DZ3 D(Is=1u Rs=17.3meg)
.MODEL PMOS10 PMOS (level=1 vto=-0.9)
.model SWVCR VSWITCH roff=6.5meg ron=20meg
S12 66 67 334 GND SWVCR
R67 67 GND 1
Evdd 29 GND VDD GND 1
.ends bd46341
*$
***************
*[Disclaimer]
*	This model file is made by typical data, 
*	and the manufacturing dispersions are not included.
*	Moreover, it does not guarantee all of the simulation
*	result of execution by using this. 
*	This model is being supplied as a aid to confirm the validity of
*	a design approach and help to select surrounding component values
*	While it reflects reasonably close to similarity to the actual
*	device in terms of performance, it is not suggested as a
*	replacement for breadboarding.
*	Simulation should be used as a forerunner or a supplement
*	to a traditional lab testing.
*
*[Copyright]
*Copyright 2010 ROHM Co., Ltd.
*
*[Component]		BD46xx2 series
*
*[Manufacturer]		ROHM Co., Ltd.
*
***************

* 

***************VERSION HYSTORY***************
*1.0 - 06/26/09: 	Created by Ryan Ordiales from indications of Sho Sai
*1.1 - 10/23/09:	Modified by Ryan Ordiales. Removed all connection to 0
*			and connected to GND. Created GND pin to comp1, comp2 and comp3
*			subcircuit. Removed connection to "Global 0".
*$
.subckt bd46342 VOUT VDD ER GND 
***************comp1 block***************
*                      VDD
*                   out |
*                in2 |  |
*             in1 |  |  |
*              |  |  |  |
.subckt comp1 11 10 18 17 GND
.model DZ D(Is=0.05n rs=0.001 bv=10 Ibv=1)
E1 12 GND 11 10 10k
R1 12 13 100k
C1 13 GND 100p
D1 GND 13 DZ
M4 18 13 17 17 PMOS2 l=.6u w=8000u
Rpd 18 GND 30k
***vto is set for the computation of VOLP=0.7V
***gate voltage swings from -0.5V to 10V
.MODEL PMOS2 PMOS (level=1 vto=-1.476)
.ends comp1
*$
***************comp2 block***************
*                      VDD
*                   out |
*                in2 |  |
*             in1 |  |  |
*              |  |  |  |
.subckt comp2 11 10 18 17 GND
.model DZ D(Is=0.05n rs=0.001 bv=10 Ibv=1)
E1 12 GND 11 10 100k
R1 12 13 100k
C1 13 GND 100p
D1 GND 13 DZ
M6 18 13 17 17 PMOS20 l=1u w=10000u
.MODEL PMOS20 PMOS (level=1 vto=0)
Rpd 18 GND 30k
.ends comp2
*$
***************comp3 block***************
*                out
*             inn |  
*           inp | |  
*             | | |  
.subckt comp3 1 2 4 GND
.model DZ D(Is=.05u Rs=0.001 bv=5 Ibv=1)
E1 3 GND 1 2 100k
R1 3 4 100k
C1 4 GND 10p
D1 GND 4 DZ
.ends comp3
*$
***************VDET, Hysteresis and Release Block***************
Cct CT GND 28.85n
X1 11 10 702 29 GND comp2
Vref 10 GND 1
R1b 29 11 20meg
R100 11 16 7.78210meg
R101 16 GND 0.55123meg
M3 16 18 GND GND NMOS2 l=1u w=1000u
.MODEL NMOS2 NMOS (level=1 vto=.1)
.MODEL PMOS1 PMOS (level=1)
.MODEL NMOS1 NMOS (level=1)
***************TPLH delay block***************
M7 CT 18 GND GND NMOS22 l=1u w=10000u
.MODEL NMOS22 NMOS (level=1 vto=0)
Rct 29 CT 10meg
****VCTH circuit****
Rdet1 29 19 10meg
Rdet2 19 GND 10meg
***************TPHL delay block***************
X52 CT 19 20 29 GND comp1
T1 20 GND 222 GND Z0=1meg TD=53.3u
R500 222 GND 1meg
E500 333 GND poly(2) 20 GND 222 GND 0 0 0 0 2
***************ER block***************
X700 ER 700 701 GND comp3
V700 700 GND 1.43
R700 701 GND 100k
E502 18 GND poly(2) 701 GND 702 GND 0 1 1 0 -0.2
Rercc ER GND 2meg
***************driver stage block***************
Mdrv 29 333 334 GND NMOS10 l=1u w=8000u
Rdrv 334 GND 100k
.MODEL NMOS10 NMOS (level=1 vto=0)
***************Open drain NMOS output block***************
Mout1 VOUT 334 GND GND NMOS3 l=10u w=3004u
Mout2 VOUT 334 VDD VDD PMOS3 l=10u w=509.40u
.MODEL PMOS3 PMOS (level=1 vto=-.5)
.MODEL NMOS3 NMOS (level=1 vto=.5)
**circuit current
M1cc 65 65 VDD VDD PMOS10 l=10u w=100u
R2cc VDD 65 10meg
D1cc GND 65 DZ2
D2cc 65 66 DZ3
.model DZ2 D(Is=0.94u Rs=250k)
.model DZ3 D(Is=1u Rs=17.3meg)
.MODEL PMOS10 PMOS (level=1 vto=-0.9)
.model SWVCR VSWITCH roff=6.5meg ron=20meg
S12 66 67 334 GND SWVCR
R67 67 GND 1
Evdd 29 GND VDD GND 1
.ends bd46342
*$
***************
*[Disclaimer]
*	This model file is made by typical data, 
*	and the manufacturing dispersions are not included.
*	Moreover, it does not guarantee all of the simulation
*	result of execution by using this. 
*	This model is being supplied as a aid to confirm the validity of
*	a design approach and help to select surrounding component values
*	While it reflects reasonably close to similarity to the actual
*	device in terms of performance, it is not suggested as a
*	replacement for breadboarding.
*	Simulation should be used as a forerunner or a supplement
*	to a traditional lab testing.
*
*[Copyright]
*Copyright 2010 ROHM Co., Ltd.
*
*[Component]		BD46xx5 series
*
*[Manufacturer]		ROHM Co., Ltd.
*
***************

* 

***************VERSION HYSTORY***************
*1.0 - 06/26/09: 	Created by Ryan Ordiales from indications of Sho Sai
*1.1 - 10/23/09:	Modified by Ryan Ordiales. Removed all connection to 0
*			and connected to GND. Created GND pin to comp1, comp2 and comp3
*			subcircuit. Removed connection to "Global 0".
*$
.subckt bd46345 VOUT VDD ER GND 
***************comp1 block***************
*                      VDD
*                   out |
*                in2 |  |
*             in1 |  |  |
*              |  |  |  |
.subckt comp1 11 10 18 17 GND
.model DZ D(Is=0.05n rs=0.001 bv=10 Ibv=1)
E1 12 GND 11 10 10k
R1 12 13 100k
C1 13 GND 100p
D1 GND 13 DZ
M4 18 13 17 17 PMOS2 l=.6u w=8000u
Rpd 18 GND 30k
***vto is set for the computation of VOLP=0.7V
***gate voltage swings from -0.5V to 10V
.MODEL PMOS2 PMOS (level=1 vto=-1.476)
.ends comp1
*$
***************comp2 block***************
*                      VDD
*                   out |
*                in2 |  |
*             in1 |  |  |
*              |  |  |  |
.subckt comp2 11 10 18 17 GND
.model DZ D(Is=0.05n rs=0.001 bv=10 Ibv=1)
E1 12 GND 11 10 100k
R1 12 13 100k
C1 13 GND 100p
D1 GND 13 DZ
M6 18 13 17 17 PMOS20 l=1u w=10000u
.MODEL PMOS20 PMOS (level=1 vto=0)
Rpd 18 GND 30k
.ends comp2
*$
***************comp3 block***************
*                out
*             inn |  
*           inp | |  
*             | | |  
.subckt comp3 1 2 4 GND
.model DZ D(Is=.05u Rs=0.001 bv=5 Ibv=1)
E1 3 GND 1 2 100k
R1 3 4 100k
C1 4 GND 10p
D1 GND 4 DZ
.ends comp3
*$
***************VDET, Hysteresis and Release Block***************
Cct CT GND 7.21n
X1 11 10 702 29 GND comp2
Vref 10 GND 1
R1b 29 11 20meg
R100 11 16 7.78210meg
R101 16 GND 0.55123meg
M3 16 18 GND GND NMOS2 l=1u w=1000u
.MODEL NMOS2 NMOS (level=1 vto=.1)
.MODEL PMOS1 PMOS (level=1)
.MODEL NMOS1 NMOS (level=1)
***************TPLH delay block***************
M7 CT 18 GND GND NMOS22 l=1u w=10000u
.MODEL NMOS22 NMOS (level=1 vto=0)
Rct 29 CT 10meg
****VCTH circuit****
Rdet1 29 19 10meg
Rdet2 19 GND 10meg
***************TPHL delay block***************
X52 CT 19 20 29 GND comp1
T1 20 GND 222 GND Z0=1meg TD=53.0u
R500 222 GND 1meg
E500 333 GND poly(2) 20 GND 222 GND 0 0 0 0 2
***************ER block***************
X700 ER 700 701 GND comp3
V700 700 GND 1.43
R700 701 GND 100k
E502 18 GND poly(2) 701 GND 702 GND 0 1 1 0 -0.2
Rercc ER GND 2meg
***************driver stage block***************
Mdrv 29 333 334 GND NMOS10 l=1u w=8000u
Rdrv 334 GND 100k
.MODEL NMOS10 NMOS (level=1 vto=0)
***************Open drain NMOS output block***************
Mout1 VOUT 334 GND GND NMOS3 l=10u w=3004u
Mout2 VOUT 334 VDD VDD PMOS3 l=10u w=509.40u
.MODEL PMOS3 PMOS (level=1 vto=-.5)
.MODEL NMOS3 NMOS (level=1 vto=.5)
**circuit current
M1cc 65 65 VDD VDD PMOS10 l=10u w=100u
R2cc VDD 65 10meg
D1cc GND 65 DZ2
D2cc 65 66 DZ3
.model DZ2 D(Is=0.94u Rs=250k)
.model DZ3 D(Is=1u Rs=17.3meg)
.MODEL PMOS10 PMOS (level=1 vto=-0.9)
.model SWVCR VSWITCH roff=6.5meg ron=20meg
S12 66 67 334 GND SWVCR
R67 67 GND 1
Evdd 29 GND VDD GND 1
.ends bd46345
*$
***************
*[Disclaimer]
*	This model file is made by typical data, 
*	and the manufacturing dispersions are not included.
*	Moreover, it does not guarantee all of the simulation
*	result of execution by using this. 
*	This model is being supplied as a aid to confirm the validity of
*	a design approach and help to select surrounding component values
*	While it reflects reasonably close to similarity to the actual
*	device in terms of performance, it is not suggested as a
*	replacement for breadboarding.
*	Simulation should be used as a forerunner or a supplement
*	to a traditional lab testing.
*
*[Copyright]
*Copyright 2010 ROHM Co., Ltd.
*
*[Component]		BD46xx1 series
*
*[Manufacturer]		ROHM Co., Ltd.
*
***************

* 

***************VERSION HYSTORY***************
*1.0 - 06/26/09: 	Created by Ryan Ordiales from indications of Sho Sai
*1.1 - 10/22/09:	Modified by Ryan Ordiales, Enrico T. Felicilda. Removed all connection to 0
*			and connected to GND. Created GND pin to comp1, comp2 and comp3
*			subcircuit. Removed connection to "Global 0".
*$
.subckt bd46351 VOUT VDD ER GND 
***************comp1 block***************
*                      VDD
*                   out |
*                in2 |  |
*             in1 |  |  |
*              |  |  |  |
.subckt comp1 11 10 18 17 GND
.model DZ D(Is=0.05n rs=0.001 bv=10 Ibv=1)
E1 12 GND 11 10 10k
R1 12 13 100k
C1 13 GND 100p
D1 GND 13 DZ
M4 18 13 17 17 PMOS2 l=.6u w=8000u
Rpd 18 GND 30k
***vto is set for the computation of VOLP=0.7V
***gate voltage swings from -0.5V to 10V
.MODEL PMOS2 PMOS (level=1 vto=-1.476)
.ends comp1
*$
***************comp2 block***************
*                      VDD
*                   out |
*                in2 |  |
*             in1 |  |  |
*              |  |  |  |
.subckt comp2 11 10 18 17 GND
.model DZ D(Is=0.05n rs=0.001 bv=10 Ibv=1)
E1 12 GND 11 10 100k
R1 12 13 100k
C1 13 GND 100p
D1 GND 13 DZ
M6 18 13 17 17 PMOS20 l=1u w=10000u
.MODEL PMOS20 PMOS (level=1 vto=0)
Rpd 18 GND 30k
.ends comp2
*$
***************comp3 block***************
*                out
*             inn |  
*           inp | |  
*             | | |  
.subckt comp3 1 2 4 GND
.model DZ D(Is=.05u Rs=0.001 bv=5 Ibv=1)
E1 3 GND 1 2 100k
R1 3 4 100k
C1 4 GND 10p
D1 GND 4 DZ
.ends comp3
*$
***************VDET, Hysteresis and Release Block***************
Cct CT GND 14.82n
X1 11 10 702 29 GND comp2
Vref 10 GND 1
R1b 29 11 20meg
R100 11 16 7.47664meg
R101 16 GND 0.52336meg
M3 16 18 GND GND NMOS2 l=1u w=1000u
.MODEL NMOS2 NMOS (level=1 vto=.1)
.MODEL PMOS1 PMOS (level=1)
.MODEL NMOS1 NMOS (level=1)
***************TPLH delay block***************
M7 CT 18 GND GND NMOS22 l=1u w=10000u
.MODEL NMOS22 NMOS (level=1 vto=0)
Rct 29 CT 10meg
****VCTH circuit****
Rdet1 29 19 10meg
Rdet2 19 GND 10meg
***************TPHL delay block***************
X52 CT 19 20 29 GND comp1
T1 20 GND 222 GND Z0=1meg TD=49.9u
R500 222 GND 1meg
E500 333 GND poly(2) 20 GND 222 GND 0 0 0 0 2
***************ER block***************
X700 ER 700 701 GND comp3
V700 700 GND 1.43
R700 701 GND 100k
E502 18 GND poly(2) 701 GND 702 GND 0 1 1 0 -0.2
Rercc ER GND 2meg
***************driver stage block***************
Mdrv 29 333 334 GND NMOS10 l=1u w=8000u
Rdrv 334 GND 100k
.MODEL NMOS10 NMOS (level=1 vto=0)
***************Open drain NMOS output block***************
Mout1 VOUT 334 GND GND NMOS3 l=10u w=3004u
Mout2 VOUT 334 VDD VDD PMOS3 l=10u w=509.40u
.MODEL PMOS3 PMOS (level=1 vto=-.5)
.MODEL NMOS3 NMOS (level=1 vto=.5)
**circuit current
M1cc 65 65 VDD VDD PMOS10 l=10u w=100u
R2cc VDD 65 10meg
D1cc GND 65 DZ2
D2cc 65 66 DZ3
.model DZ2 D(Is=0.94u Rs=250k)
.model DZ3 D(Is=1u Rs=19meg)
.MODEL PMOS10 PMOS (level=1 vto=-0.9)
.model SWVCR VSWITCH roff=5.8meg ron=20meg
S12 66 67 334 GND SWVCR
R67 67 GND 1
Evdd 29 GND VDD GND 1
.ends bd46351
*$
***************
*[Disclaimer]
*	This model file is made by typical data, 
*	and the manufacturing dispersions are not included.
*	Moreover, it does not guarantee all of the simulation
*	result of execution by using this. 
*	This model is being supplied as a aid to confirm the validity of
*	a design approach and help to select surrounding component values
*	While it reflects reasonably close to similarity to the actual
*	device in terms of performance, it is not suggested as a
*	replacement for breadboarding.
*	Simulation should be used as a forerunner or a supplement
*	to a traditional lab testing.
*
*[Copyright]
*Copyright 2010 ROHM Co., Ltd.
*
*[Component]		BD46xx2 series
*
*[Manufacturer]		ROHM Co., Ltd.
*
***************

* 

***************VERSION HYSTORY***************
*1.0 - 06/26/09: 	Created by Ryan Ordiales from indications of Sho Sai
*1.1 - 10/23/09:	Modified by Ryan Ordiales. Removed all connection to 0
*			and connected to GND. Created GND pin to comp1, comp2 and comp3
*			subcircuit. Removed connection to "Global 0".
*$
.subckt bd46352 VOUT VDD ER GND 
***************comp1 block***************
*                      VDD
*                   out |
*                in2 |  |
*             in1 |  |  |
*              |  |  |  |
.subckt comp1 11 10 18 17 GND
.model DZ D(Is=0.05n rs=0.001 bv=10 Ibv=1)
E1 12 GND 11 10 10k
R1 12 13 100k
C1 13 GND 100p
D1 GND 13 DZ
M4 18 13 17 17 PMOS2 l=.6u w=8000u
Rpd 18 GND 30k
***vto is set for the computation of VOLP=0.7V
***gate voltage swings from -0.5V to 10V
.MODEL PMOS2 PMOS (level=1 vto=-1.476)
.ends comp1
*$
***************comp2 block***************
*                      VDD
*                   out |
*                in2 |  |
*             in1 |  |  |
*              |  |  |  |
.subckt comp2 11 10 18 17 GND
.model DZ D(Is=0.05n rs=0.001 bv=10 Ibv=1)
E1 12 GND 11 10 100k
R1 12 13 100k
C1 13 GND 100p
D1 GND 13 DZ
M6 18 13 17 17 PMOS20 l=1u w=10000u
.MODEL PMOS20 PMOS (level=1 vto=0)
Rpd 18 GND 30k
.ends comp2
*$
***************comp3 block***************
*                out
*             inn |  
*           inp | |  
*             | | |  
.subckt comp3 1 2 4 GND
.model DZ D(Is=.05u Rs=0.001 bv=5 Ibv=1)
E1 3 GND 1 2 100k
R1 3 4 100k
C1 4 GND 10p
D1 GND 4 DZ
.ends comp3
*$
***************VDET, Hysteresis and Release Block***************
Cct CT GND 28.85n
X1 11 10 702 29 GND comp2
Vref 10 GND 1
R1b 29 11 20meg
R100 11 16 7.47664meg
R101 16 GND 0.52336meg
M3 16 18 GND GND NMOS2 l=1u w=1000u
.MODEL NMOS2 NMOS (level=1 vto=.1)
.MODEL PMOS1 PMOS (level=1)
.MODEL NMOS1 NMOS (level=1)
***************TPLH delay block***************
M7 CT 18 GND GND NMOS22 l=1u w=10000u
.MODEL NMOS22 NMOS (level=1 vto=0)
Rct 29 CT 10meg
****VCTH circuit****
Rdet1 29 19 10meg
Rdet2 19 GND 10meg
***************TPHL delay block***************
X52 CT 19 20 29 GND comp1
T1 20 GND 222 GND Z0=1meg TD=53.3u
R500 222 GND 1meg
E500 333 GND poly(2) 20 GND 222 GND 0 0 0 0 2
***************ER block***************
X700 ER 700 701 GND comp3
V700 700 GND 1.43
R700 701 GND 100k
E502 18 GND poly(2) 701 GND 702 GND 0 1 1 0 -0.2
Rercc ER GND 2meg
***************driver stage block***************
Mdrv 29 333 334 GND NMOS10 l=1u w=8000u
Rdrv 334 GND 100k
.MODEL NMOS10 NMOS (level=1 vto=0)
***************Open drain NMOS output block***************
Mout1 VOUT 334 GND GND NMOS3 l=10u w=3004u
Mout2 VOUT 334 VDD VDD PMOS3 l=10u w=509.40u
.MODEL PMOS3 PMOS (level=1 vto=-.5)
.MODEL NMOS3 NMOS (level=1 vto=.5)
**circuit current
M1cc 65 65 VDD VDD PMOS10 l=10u w=100u
R2cc VDD 65 10meg
D1cc GND 65 DZ2
D2cc 65 66 DZ3
.model DZ2 D(Is=0.94u Rs=250k)
.model DZ3 D(Is=1u Rs=19meg)
.MODEL PMOS10 PMOS (level=1 vto=-0.9)
.model SWVCR VSWITCH roff=5.8meg ron=20meg
S12 66 67 334 GND SWVCR
R67 67 GND 1
Evdd 29 GND VDD GND 1
.ends bd46352
*$
***************
*[Disclaimer]
*	This model file is made by typical data, 
*	and the manufacturing dispersions are not included.
*	Moreover, it does not guarantee all of the simulation
*	result of execution by using this. 
*	This model is being supplied as a aid to confirm the validity of
*	a design approach and help to select surrounding component values
*	While it reflects reasonably close to similarity to the actual
*	device in terms of performance, it is not suggested as a
*	replacement for breadboarding.
*	Simulation should be used as a forerunner or a supplement
*	to a traditional lab testing.
*
*[Copyright]
*Copyright 2010 ROHM Co., Ltd.
*
*[Component]		BD46xx5 series
*
*[Manufacturer]		ROHM Co., Ltd.
*
***************

* 

***************VERSION HYSTORY***************
*1.0 - 06/26/09: 	Created by Ryan Ordiales from indications of Sho Sai
*1.1 - 10/23/09:	Modified by Ryan Ordiales. Removed all connection to 0
*			and connected to GND. Created GND pin to comp1, comp2 and comp3
*			subcircuit. Removed connection to "Global 0".
*$
.subckt bd46355 VOUT VDD ER GND 
***************comp1 block***************
*                      VDD
*                   out |
*                in2 |  |
*             in1 |  |  |
*              |  |  |  |
.subckt comp1 11 10 18 17 GND
.model DZ D(Is=0.05n rs=0.001 bv=10 Ibv=1)
E1 12 GND 11 10 10k
R1 12 13 100k
C1 13 GND 100p
D1 GND 13 DZ
M4 18 13 17 17 PMOS2 l=.6u w=8000u
Rpd 18 GND 30k
***vto is set for the computation of VOLP=0.7V
***gate voltage swings from -0.5V to 10V
.MODEL PMOS2 PMOS (level=1 vto=-1.476)
.ends comp1
*$
***************comp2 block***************
*                      VDD
*                   out |
*                in2 |  |
*             in1 |  |  |
*              |  |  |  |
.subckt comp2 11 10 18 17 GND
.model DZ D(Is=0.05n rs=0.001 bv=10 Ibv=1)
E1 12 GND 11 10 100k
R1 12 13 100k
C1 13 GND 100p
D1 GND 13 DZ
M6 18 13 17 17 PMOS20 l=1u w=10000u
.MODEL PMOS20 PMOS (level=1 vto=0)
Rpd 18 GND 30k
.ends comp2
*$
***************comp3 block***************
*                out
*             inn |  
*           inp | |  
*             | | |  
.subckt comp3 1 2 4 GND
.model DZ D(Is=.05u Rs=0.001 bv=5 Ibv=1)
E1 3 GND 1 2 100k
R1 3 4 100k
C1 4 GND 10p
D1 GND 4 DZ
.ends comp3
*$
***************VDET, Hysteresis and Release Block***************
Cct CT GND 7.21n
X1 11 10 702 29 GND comp2
Vref 10 GND 1
R1b 29 11 20meg
R100 11 16 7.47664meg
R101 16 GND 0.52336meg
M3 16 18 GND GND NMOS2 l=1u w=1000u
.MODEL NMOS2 NMOS (level=1 vto=.1)
.MODEL PMOS1 PMOS (level=1)
.MODEL NMOS1 NMOS (level=1)
***************TPLH delay block***************
M7 CT 18 GND GND NMOS22 l=1u w=10000u
.MODEL NMOS22 NMOS (level=1 vto=0)
Rct 29 CT 10meg
****VCTH circuit****
Rdet1 29 19 10meg
Rdet2 19 GND 10meg
***************TPHL delay block***************
X52 CT 19 20 29 GND comp1
T1 20 GND 222 GND Z0=1meg TD=53.0u
R500 222 GND 1meg
E500 333 GND poly(2) 20 GND 222 GND 0 0 0 0 2
***************ER block***************
X700 ER 700 701 GND comp3
V700 700 GND 1.43
R700 701 GND 100k
E502 18 GND poly(2) 701 GND 702 GND 0 1 1 0 -0.2
Rercc ER GND 2meg
***************driver stage block***************
Mdrv 29 333 334 GND NMOS10 l=1u w=8000u
Rdrv 334 GND 100k
.MODEL NMOS10 NMOS (level=1 vto=0)
***************Open drain NMOS output block***************
Mout1 VOUT 334 GND GND NMOS3 l=10u w=3004u
Mout2 VOUT 334 VDD VDD PMOS3 l=10u w=509.40u
.MODEL PMOS3 PMOS (level=1 vto=-.5)
.MODEL NMOS3 NMOS (level=1 vto=.5)
**circuit current
M1cc 65 65 VDD VDD PMOS10 l=10u w=100u
R2cc VDD 65 10meg
D1cc GND 65 DZ2
D2cc 65 66 DZ3
.model DZ2 D(Is=0.94u Rs=250k)
.model DZ3 D(Is=1u Rs=19meg)
.MODEL PMOS10 PMOS (level=1 vto=-0.9)
.model SWVCR VSWITCH roff=5.8meg ron=20meg
S12 66 67 334 GND SWVCR
R67 67 GND 1
Evdd 29 GND VDD GND 1
.ends bd46355
*$
***************
*[Disclaimer]
*	This model file is made by typical data, 
*	and the manufacturing dispersions are not included.
*	Moreover, it does not guarantee all of the simulation
*	result of execution by using this. 
*	This model is being supplied as a aid to confirm the validity of
*	a design approach and help to select surrounding component values
*	While it reflects reasonably close to similarity to the actual
*	device in terms of performance, it is not suggested as a
*	replacement for breadboarding.
*	Simulation should be used as a forerunner or a supplement
*	to a traditional lab testing.
*
*[Copyright]
*Copyright 2010 ROHM Co., Ltd.
*
*[Component]		BD46xx1 series
*
*[Manufacturer]		ROHM Co., Ltd.
*
***************

* 

***************VERSION HYSTORY***************
*1.0 - 06/26/09: 	Created by Ryan Ordiales from indications of Sho Sai
*1.1 - 10/22/09:	Modified by Ryan Ordiales, Enrico T. Felicilda. Removed all connection to 0
*			and connected to GND. Created GND pin to comp1, comp2 and comp3
*			subcircuit. Removed connection to "Global 0".
*$
.subckt bd46361 VOUT VDD ER GND 
***************comp1 block***************
*                      VDD
*                   out |
*                in2 |  |
*             in1 |  |  |
*              |  |  |  |
.subckt comp1 11 10 18 17 GND
.model DZ D(Is=0.05n rs=0.001 bv=10 Ibv=1)
E1 12 GND 11 10 10k
R1 12 13 100k
C1 13 GND 100p
D1 GND 13 DZ
M4 18 13 17 17 PMOS2 l=.6u w=8000u
Rpd 18 GND 30k
***vto is set for the computation of VOLP=0.7V
***gate voltage swings from -0.5V to 10V
.MODEL PMOS2 PMOS (level=1 vto=-1.476)
.ends comp1
*$
***************comp2 block***************
*                      VDD
*                   out |
*                in2 |  |
*             in1 |  |  |
*              |  |  |  |
.subckt comp2 11 10 18 17 GND
.model DZ D(Is=0.05n rs=0.001 bv=10 Ibv=1)
E1 12 GND 11 10 100k
R1 12 13 100k
C1 13 GND 100p
D1 GND 13 DZ
M6 18 13 17 17 PMOS20 l=1u w=10000u
.MODEL PMOS20 PMOS (level=1 vto=0)
Rpd 18 GND 30k
.ends comp2
*$
***************comp3 block***************
*                out
*             inn |  
*           inp | |  
*             | | |  
.subckt comp3 1 2 4 GND
.model DZ D(Is=.05u Rs=0.001 bv=5 Ibv=1)
E1 3 GND 1 2 100k
R1 3 4 100k
C1 4 GND 10p
D1 GND 4 DZ
.ends comp3
*$
***************VDET, Hysteresis and Release Block***************
Cct CT GND 14.82n
X1 11 10 702 29 GND comp2
Vref 10 GND 1
R1b 29 11 20meg
R100 11 16 7.19424meg
R101 16 GND 0.49806meg
M3 16 18 GND GND NMOS2 l=1u w=1000u
.MODEL NMOS2 NMOS (level=1 vto=.1)
.MODEL PMOS1 PMOS (level=1)
.MODEL NMOS1 NMOS (level=1)
***************TPLH delay block***************
M7 CT 18 GND GND NMOS22 l=1u w=10000u
.MODEL NMOS22 NMOS (level=1 vto=0)
Rct 29 CT 10meg
****VCTH circuit****
Rdet1 29 19 10meg
Rdet2 19 GND 10meg
***************TPHL delay block***************
X52 CT 19 20 29 GND comp1
T1 20 GND 222 GND Z0=1meg TD=49.9u
R500 222 GND 1meg
E500 333 GND poly(2) 20 GND 222 GND 0 0 0 0 2
***************ER block***************
X700 ER 700 701 GND comp3
V700 700 GND 1.43
R700 701 GND 100k
E502 18 GND poly(2) 701 GND 702 GND 0 1 1 0 -0.2
Rercc ER GND 2meg
***************driver stage block***************
Mdrv 29 333 334 GND NMOS10 l=1u w=8000u
Rdrv 334 GND 100k
.MODEL NMOS10 NMOS (level=1 vto=0)
***************Open drain NMOS output block***************
Mout1 VOUT 334 GND GND NMOS3 l=10u w=3004u
Mout2 VOUT 334 VDD VDD PMOS3 l=10u w=509.40u
.MODEL PMOS3 PMOS (level=1 vto=-.5)
.MODEL NMOS3 NMOS (level=1 vto=.5)
**circuit current
M1cc 65 65 VDD VDD PMOS10 l=10u w=100u
R2cc VDD 65 10meg
D1cc GND 65 DZ2
D2cc 65 66 DZ3
.model DZ2 D(Is=0.94u Rs=250k)
.model DZ3 D(Is=1u Rs=20.6meg)
.MODEL PMOS10 PMOS (level=1 vto=-0.9)
.model SWVCR VSWITCH roff=5.1meg ron=20meg
S12 66 67 334 GND SWVCR
R67 67 GND 1
Evdd 29 GND VDD GND 1
.ends bd46361
*$
***************
*[Disclaimer]
*	This model file is made by typical data, 
*	and the manufacturing dispersions are not included.
*	Moreover, it does not guarantee all of the simulation
*	result of execution by using this. 
*	This model is being supplied as a aid to confirm the validity of
*	a design approach and help to select surrounding component values
*	While it reflects reasonably close to similarity to the actual
*	device in terms of performance, it is not suggested as a
*	replacement for breadboarding.
*	Simulation should be used as a forerunner or a supplement
*	to a traditional lab testing.
*
*[Copyright]
*Copyright 2010 ROHM Co., Ltd.
*
*[Component]		BD46xx2 series
*
*[Manufacturer]		ROHM Co., Ltd.
*
***************

* 

***************VERSION HYSTORY***************
*1.0 - 06/26/09: 	Created by Ryan Ordiales from indications of Sho Sai
*1.1 - 10/23/09:	Modified by Ryan Ordiales. Removed all connection to 0
*			and connected to GND. Created GND pin to comp1, comp2 and comp3
*			subcircuit. Removed connection to "Global 0".
*$
.subckt bd46362 VOUT VDD ER GND 
***************comp1 block***************
*                      VDD
*                   out |
*                in2 |  |
*             in1 |  |  |
*              |  |  |  |
.subckt comp1 11 10 18 17 GND
.model DZ D(Is=0.05n rs=0.001 bv=10 Ibv=1)
E1 12 GND 11 10 10k
R1 12 13 100k
C1 13 GND 100p
D1 GND 13 DZ
M4 18 13 17 17 PMOS2 l=.6u w=8000u
Rpd 18 GND 30k
***vto is set for the computation of VOLP=0.7V
***gate voltage swings from -0.5V to 10V
.MODEL PMOS2 PMOS (level=1 vto=-1.476)
.ends comp1
*$
***************comp2 block***************
*                      VDD
*                   out |
*                in2 |  |
*             in1 |  |  |
*              |  |  |  |
.subckt comp2 11 10 18 17 GND
.model DZ D(Is=0.05n rs=0.001 bv=10 Ibv=1)
E1 12 GND 11 10 100k
R1 12 13 100k
C1 13 GND 100p
D1 GND 13 DZ
M6 18 13 17 17 PMOS20 l=1u w=10000u
.MODEL PMOS20 PMOS (level=1 vto=0)
Rpd 18 GND 30k
.ends comp2
*$
***************comp3 block***************
*                out
*             inn |  
*           inp | |  
*             | | |  
.subckt comp3 1 2 4 GND
.model DZ D(Is=.05u Rs=0.001 bv=5 Ibv=1)
E1 3 GND 1 2 100k
R1 3 4 100k
C1 4 GND 10p
D1 GND 4 DZ
.ends comp3
*$
***************VDET, Hysteresis and Release Block***************
Cct CT GND 28.85n
X1 11 10 702 29 GND comp2
Vref 10 GND 1
R1b 29 11 20meg
R100 11 16 7.19424meg
R101 16 GND 0.49806meg
M3 16 18 GND GND NMOS2 l=1u w=1000u
.MODEL NMOS2 NMOS (level=1 vto=.1)
.MODEL PMOS1 PMOS (level=1)
.MODEL NMOS1 NMOS (level=1)
***************TPLH delay block***************
M7 CT 18 GND GND NMOS22 l=1u w=10000u
.MODEL NMOS22 NMOS (level=1 vto=0)
Rct 29 CT 10meg
****VCTH circuit****
Rdet1 29 19 10meg
Rdet2 19 GND 10meg
***************TPHL delay block***************
X52 CT 19 20 29 GND comp1
T1 20 GND 222 GND Z0=1meg TD=53.3u
R500 222 GND 1meg
E500 333 GND poly(2) 20 GND 222 GND 0 0 0 0 2
***************ER block***************
X700 ER 700 701 GND comp3
V700 700 GND 1.43
R700 701 GND 100k
E502 18 GND poly(2) 701 GND 702 GND 0 1 1 0 -0.2
Rercc ER GND 2meg
***************driver stage block***************
Mdrv 29 333 334 GND NMOS10 l=1u w=8000u
Rdrv 334 GND 100k
.MODEL NMOS10 NMOS (level=1 vto=0)
***************Open drain NMOS output block***************
Mout1 VOUT 334 GND GND NMOS3 l=10u w=3004u
Mout2 VOUT 334 VDD VDD PMOS3 l=10u w=509.40u
.MODEL PMOS3 PMOS (level=1 vto=-.5)