* DRSX301LA-30 D model
* Model Generated by ROHM
* All Rights Reserved
* Commercial Use or 
* Resale Restricted
* Date: 2009/02/17
.MODEL RSX301LA-30 D
+ IS=18.292E-6
+ N=1.0097
+ RS=8.7169E-3
+ IKF=.54715
+ XTI=2
+ EG=.67
+ CJO=774.17E-12
+ M=.5119
+ VJ=.74122
+ ISR=6.6348E-6
+ BV=30
+ TT=3.0000E-9
+ TRS1=0.01
+ TIKF=-0.004

* DRSX501LA-20 D model
* Model Generated by ROHM
* All Rights Reserved
* Commercial Use or 
* Resale Restricted
* Date: 2009/02/17
.MODEL RSX501LA-20 D
+ IS=55.866E-6
+ N=.99403
+ RS=5.4816E-3
+ IKF=.49994
+ XTI=2
+ EG=.5
+ CJO=988.59E-12
+ M=.59254
+ VJ=.75602
+ ISR=18.876E-6
+ NR=1.3000
+ BV=25
+ TT=18.497E-9

* DRSX051VA-30 D model
* Model Generated by ROHM
* All Rights Reserved
* Commercial Use or 
* Resale Restricted
* Date: 2009/02/17
.MODEL RSX051VA-30 D
+ IS=2.4597E-6
+ N=.86597
+ RS=60.089E-3
+ IKF=34.192E-3
+ XTI=2
+ EG=.57
+ CJO=157.54E-12
+ M=.58844
+ VJ=.73412
+ ISR=4.5364E-6
+ NR=1.2000
+ BV=30
+ TT=21.703E-9

* DRSX071VA-30 D model
* Model Generated by ROHM
* All Rights Reserved
* Commercial Use or 
* Resale Restricted
* Date: 2009/02/17
.MODEL RSX071VA-30 D
+ IS=2.4597E-6
+ N=.86597
+ RS=60.089E-3
+ IKF=34.192E-3
+ XTI=2
+ EG=.57
+ CJO=157.54E-12
+ M=.58844
+ VJ=.73412
+ ISR=4.5364E-6
+ NR=1.2000
+ BV=30
+ TT=21.703E-9

* DRSX101M-30 D model
* Model Generated by ROHM
* All Rights Reserved
* Commercial Use or 
* Resale Restricted
* Date: 2009/02/17
.MODEL RSX101M-30 D
+ IS=598.08E-9
+ N=.66808
+ RS=28.158E-3
+ IKF=10.167E-3
+ XTI=2
+ EG=.57
+ CJO=300.10E-12
+ M=.53965
+ VJ=.73769
+ ISR=10.432E-6
+ NR=1.4000
+ BV=30
+ TT=10.605E-9

* DRSX101VA-30 D model
* Model Generated by ROHM
* All Rights Reserved
* Commercial Use or 
* Resale Restricted
* Date: 2009/02/17
.MODEL RSX101VA-30 D
+ IS=2.4597E-6
+ N=.86597
+ RS=60.089E-3
+ IKF=34.192E-3
+ XTI=2
+ EG=.57
+ CJO=157.54E-12
+ M=.58844
+ VJ=.73412
+ ISR=4.5364E-6
+ NR=1.2000
+ BV=30
+ TT=21.703E-9

* DRSX201L-30 D model
* Model Generated by ROHM
* All Rights Reserved
* Commercial Use or 
* Resale Restricted
* Date: 2009/02/17
.MODEL RSX201L-30 D
+ IS=16.537E-6
+ N=1.0278
+ RS=155.28E-6
+ IKF=.17197
+ XTI=2
+ EG=.5
+ CJO=497.07E-12
+ M=.53522
+ VJ=.70614
+ ISR=658.28E-9
+ NR=1.3000
+ BV=30
+ TT=14.305E-9

* DRSX201VA-30 D model
* Model Generated by ROHM
* All Rights Reserved
* Commercial Use or Resale Restricted
* Date: 2009/01/22
.MODEL RSX201VA-30 D
+ IS=9.8082E-6
+ N=1.0435
+ RS=55.729E-3
+ IKF=3.2785
+ XTI=2
+ EG=.61
+ CJO=234.59E-12
+ M=.52838
+ VJ=.75122
+ ISR=8.0512E-6
+ NR=1.2000
+ BV=100
+ TT=11.098E-9
+ TRS1=0.005

* DRSX205L-30 D model
* Model Generated by ROHM
* All Rights Reserved
* Commercial Use or Resale Restricted
* Date: 2011/06/10
.MODEL RSX205L-30 D
+ IS=598.08E-9
+ N=.66808
+ RS=28.158E-3
+ IKF=10.167E-3
+ XTI=2
+ EG=.57
+ CJO=300.10E-12
+ M=.53965
+ VJ=.73769
+ ISR=10.432E-6
+ NR=1.4000
+ BV=30
+ TT=10.605E-9

* DRSX301L-30 D model
* Model Generated by ROHM
* All Rights Reserved
* Commercial Use or 
* Resale Restricted
* Date: 2009/02/17
.MODEL RSX301L-30 D
+ IS=18.292E-6
+ N=1.0097
+ RS=8.7169E-3
+ IKF=.54715
+ XTI=2
+ EG=.67
+ CJO=774.17E-12
+ M=.5119
+ VJ=.74122
+ ISR=6.6348E-6
+ BV=30
+ TT=3.0000E-9
+ TRS1=0.01
+ TIKF=-0.004

* DRSX501L-20 D model
* Model Generated by ROHM
* All Rights Reserved
* Commercial Use or 
* Resale Restricted
* Date: 2009/02/17
.MODEL RSX501L-20 D
+ IS=55.866E-6
+ N=.99403
+ RS=5.4816E-3
+ IKF=.49994
+ XTI=2
+ EG=.5
+ CJO=988.59E-12
+ M=.59254
+ VJ=.75602
+ ISR=18.876E-6
+ NR=1.3000
+ BV=25
+ TT=18.497E-9

* DRB420D D model
* Date: 2008/10/21
.MODEL RB420D D
+ IS=20.467E-9
+ N=1.0473
+ RS=.73919
+ IKF=21.589
+ XTI=2
+ EG=.69
+ CJO=19.707E-12
+ M=.42435
+ VJ=.51983
+ ISR=18.820E-9
+ NR=1.7000
+ BV=40
+ TT=7.8000E-9

* DRB421D D model
* Date: 2008/10/21
.MODEL RB421D D
+ IS=825.50E-9
+ N=1.0590
+ RS=1.1870
+ IKF=13.612
+ XTI=2
+ EG=.55
+ CJO=20.268E-12
+ M=.4428
+ VJ=.57928
+ ISR=200.54E-9
+ NR=1.1000
+ BV=40
+ TT=14.700E-9

* DRB425D D model
* Date: 2008/10/21
.MODEL RB425D D
+ IS=258.65E-9
+ N=.94532
+ RS=1.1590
+ IKF=2.6192
+ XTI=2
+ EG=.55
+ CJO=20.268E-12
+ M=.4428
+ VJ=.57928
+ ISR=317.19E-9
+ NR=1.1000
+ BV=40
+ TT=14.700E-9

* DRB450F D model
* Date: 2008/10/21
.MODEL RB450F D
+ IS=20.467E-9
+ N=1.0473
+ RS=.73919
+ IKF=21.589
+ XTI=2
+ EG=.69
+ CJO=19.707E-12
+ M=.42435
+ VJ=.51983
+ ISR=18.820E-9
+ NR=1.7000
+ BV=45
+ TT=7.8000E-9

* DRB451F D model
* Date: 2008/10/21
.MODEL RB451F D
+ IS=825.50E-9
+ N=1.0590
+ RS=1.1870
+ IKF=13.612
+ XTI=2
+ EG=.55
+ CJO=20.268E-12
+ M=.4428
+ VJ=.57928
+ ISR=200.54E-9
+ NR=1.1000
+ BV=40
+ TT=14.700E-9

* DRB471E D model
* Date: 2008/10/21
.MODEL RB471E D
+ IS=825.50E-9
+ N=1.0590
+ RS=1.1870
+ IKF=13.612
+ XTI=2
+ EG=.55
+ CJO=20.268E-12
+ M=.4428
+ VJ=.57928
+ ISR=200.54E-9
+ NR=1.1000
+ BV=40
+ TT=14.700E-9

* DRB480K D model
* Date: 2008/10/21
.MODEL RB480K D
+ IS=20.467E-9
+ N=1.0473
+ RS=.73919
+ IKF=21.589
+ XTI=2
+ EG=.69
+ CJO=19.707E-12
+ M=.42435
+ VJ=.51983
+ ISR=18.820E-9
+ NR=1.7000
+ BV=45
+ TT=7.8000E-9

* DRB480Y D model
* Date: 2008/10/21
.MODEL RB480Y D
+ IS=46.230E-9
+ N=1.0100
+ RS=.513
+ IKF=34.229
+ XTI=2
+ EG=.69
+ CJO=28.151E-12
+ M=.48504
+ VJ=.5468
+ ISR=28.347E-9
+ NR=1.5000
+ BV=30
+ TT=6.1000E-9

* DRB480Y-40 D model
* Model Generated by ROHM
* All Rights Reserved
* Commercial Use or 
* Resale Restricted
* Date: 2009/06/10
.MODEL RB480Y-40 D
+ IS=33.926E-9
+ N=1.0213
+ RS=.53633
+ IKF=18.950E-3
+ XTI=2
+ EG=.69
+ CJO=20.500E-12
+ M=.46333
+ VJ=.75518
+ ISR=93.926E-9
+ BV=40
+ TT=5.7708E-9
+ TRS1=0.005

* DRB480Y-90 D model
* Date: 2008/10/21
.MODEL RB480Y-90 D
+ IS=20.249E-9
+ N=.98638
+ RS=2.4992
+ IKF=1.3701
+ XTI=2
+ EG=.69
+ CJO=18.094E-12
+ M=.47375
+ VJ=.53789
+ ISR=15.845E-9
+ NR=1.2000
+ BV=90
+ TT=7.9300E-9

* DRB481K D model
* Date: 2008/10/21
.MODEL RB481K D
+ IS=1.0210E-6
+ N=.975
+ RS=.527
+ IKF=30.120
+ XTI=2
+ EG=.6
+ CJO=20.033E-12
+ M=.52897
+ VJ=.46296
+ ISR=1.0909E-6
+ NR=1.2000
+ BV=30
+ TT=7.9300E-9

* DRB481Y D model
* Date: 2008/10/21
.MODEL RB481Y D
+ IS=1.0210E-6
+ N=.975
+ RS=.527
+ IKF=30.120
+ XTI=2
+ EG=.6
+ CJO=20.033E-12
+ M=.52897
+ VJ=.46296
+ ISR=1.0909E-6
+ NR=1.2000
+ BV=30
+ TT=7.9300E-9

* DRB481Y-40 D model
* Model Generated by ROHM
* All Rights Reserved
* Commercial Use or 
* Resale Restricted
* Date: 2009/06/10
.MODEL RB481Y-40 D
+ IS=1.1305E-6
+ N=1.0196
+ RS=.67904
+ IKF=32.751E-3
+ XTI=2
+ EG=.65
+ CJO=21.000E-12
+ M=.46724
+ VJ=.74825
+ ISR=904.02E-9
+ NR=1.8000
+ BV=40
+ TT=5.7708E-9
+ TRS1=0.005

* DRB481Y-90 D model
* Date: 2008/10/21
.MODEL RB481Y-90 D
+ IS=1.6286E-6
+ N=1.0233
+ RS=2.6042
+ IKF=1.0685
+ XTI=2
+ EG=.56
+ CJO=18.094E-12
+ M=.47375
+ VJ=.53789
+ ISR=778.04E-9
+ NR=1.3000
+ BV=90
+ TT=29.500E-9

* DRB495D D model
* Date: 2008/10/21
.MODEL RB495D D
+ IS=6.6722E-6
+ N=1.1524
+ RS=.24771
+ IKF=4.5430
+ XTI=2
+ EG=.6
+ CJO=59.225E-12
+ M=.54755
+ VJ=.61984
+ ISR=2.9834E-6
+ NR=1.4000
+ BV=40
+ TT=19.800E-9

* DRB500V-40 D model
* Date: 2008/10/21
.MODEL RB500V-40 D
+ IS=20.467E-9
+ N=1.0473
+ RS=.73919
+ IKF=21.589
+ XTI=2
+ EG=.69
+ CJO=19.707E-12
+ M=.42435
+ VJ=.51983
+ ISR=18.820E-9
+ NR=1.7000
+ BV=45
+ TT=7.8000E-9

* DRB501V-40 D model
* Date: 2008/10/21
.MODEL RB501V-40 D
+ IS=825.50E-9
+ N=1.0590
+ RS=1.1870
+ IKF=13.612
+ XTI=2
+ EG=.55
+ CJO=20.268E-12
+ M=.4428
+ VJ=.57928
+ ISR=200.54E-9
+ NR=1.1000
+ BV=45
+ TT=14.700E-9

* DRB520CS-30 D model
* Date: 2008/10/21
.MODEL RB520CS-30 D
+ IS=47.910E-9
+ N=1.0580
+ RS=.769
+ IKF=23.222
+ XTI=2
+ EG=.66
+ CJO=17.161E-12
+ M=.51745
+ VJ=.54354
+ ISR=18.006E-9
+ NR=1.2000
+ BV=30
+ TT=13.000E-9

* DRB520G-30 D model
* Date: 2008/10/21
.MODEL RB520G-30 D
+ IS=47.910E-9
+ N=1.0580
+ RS=.769
+ IKF=23.222
+ XTI=2
+ EG=.66
+ CJO=17.161E-12
+ M=.51745
+ VJ=.54354
+ ISR=18.006E-9
+ NR=1.2000
+ BV=30
+ TT=13.000E-9

* DRB520S-30 D model
* Date: 2008/10/21
.MODEL RB520S-30 D
+ IS=46.230E-9
+ N=1.0100
+ RS=.513
+ IKF=34.229
+ XTI=2
+ EG=.69
+ CJO=28.151E-12
+ M=.48504
+ VJ=.5468
+ ISR=28.347E-9
+ NR=1.5000
+ BV=30
+ TT=6.1000E-9

* DRB520S-40 D model
* Date: 2008/10/21
.MODEL RB520S-40 D
+ IS=21.245E-9
+ N=.97709
+ RS=.86636
+ IKF=26.128
+ XTI=2
+ EG=.69
+ CJO=23.859E-12
+ M=.49097
+ VJ=.50975
+ ISR=17.727E-9
+ NR=1.2000
+ BV=40
+ TT=7.2000E-9

* DRB520ZS-30 D model
* Date: 2008/10/21
.MODEL RB520ZS-30 D
+ IS=5.8706E-9
+ N=1.0401
+ RS=2.3196
+ IKF=8.7226
+ XTI=2
+ EG=.69
+ CJO=6.2301E-12
+ M=.41548
+ VJ=.52298
+ ISR=4.9208E-9
+ NR=1.3000
+ BV=30
+ TT=8.8000E-9

* DRB521CS-30 D model
* Date: 2008/10/21
.MODEL RB521CS-30 D
+ IS=795.50E-9
+ N=1.0510
+ RS=.864
+ IKF=45.154
+ XTI=2
+ EG=.62
+ CJO=17.116E-12
+ M=.50871
+ VJ=.5777
+ ISR=449.95E-9
+ NR=1.4000
+ BV=30
+ TT=13.500E-9

* DRB521G-30 D model
* Date: 2008/10/21
.MODEL RB521G-30 D
+ IS=795.50E-9
+ N=1.0510
+ RS=.864
+ IKF=45.154
+ XTI=2
+ EG=.62
+ CJO=17.116E-12
+ M=.50871
+ VJ=.5777
+ ISR=449.95E-9
+ NR=1.4000
+ BV=30
+ TT=13.500E-9

* DRB521S-30 D model
* Date: 2008/10/21
.MODEL RB521S-30 D
+ IS=1.0210E-6
+ N=.975
+ RS=.527
+ IKF=30.120
+ XTI=2
+ EG=.6
+ CJO=20.033E-12
+ M=.52897
+ VJ=.46296
+ ISR=1.0909E-6
+ NR=1.2000
+ BV=30
+ TT=7.9300E-9

* DRB521S-40 D model
* Date: 2008/10/21
.MODEL RB521S-40 D
+ IS=899.28E-9
+ N=1.0463
+ RS=.82562
+ IKF=18.583
+ XTI=2
+ EG=.62
+ CJO=27.670E-12
+ M=.50581
+ VJ=.51194
+ ISR=498.81E-9
+ NR=1.3000
+ BV=45
+ TT=5.9000E-9

* DRB521ZS-30 D model
* Date: 2008/10/21
.MODEL RB521ZS-30 D
+ IS=145.03E-9
+ N=1.0059
+ RS=2.3509
+ IKF=13.787
+ XTI=2
+ EG=.6
+ CJO=6.4086E-12
+ M=.41438
+ VJ=.56928
+ ISR=420.10E-9
+ NR=1.2000
+ BV=30
+ TT=8.8000E-9

* DRB530S-30 D model
* Model Generated by ROHM
* All Rights Reserved
* Commercial Use or
* Resale Restricted
* Date: 2009/05/26
.MODEL RB530S-30 D
+ IS=48.174E-9
+ N=1.0586
+ RS=.77069
+ IKF=23.097
+ XTI=2
+ EG=.65
+ CJO=15.000E-12
+ M=.52541
+ VJ=.7551
+ ISR=30.768E-9
+ NR=1.7000
+ BV=30
+ TT=8.9447E-9
+ TRS1=0.003

* DRB530XN D model
* Date: 2008/10/21
.MODEL RB530XN D
+ IS=46.230E-9
+ N=1.0100
+ RS=.513
+ IKF=34.229
+ XTI=2
+ EG=.69
+ CJO=28.151E-12
+ M=.48504
+ VJ=.5468
+ ISR=28.347E-9
+ NR=1.5000
+ BV=30
+ TT=6.1000E-9

* DRB531S-30 D model
* Model Generated by ROHM
* All Rights Reserved
* Commercial Use or 
* Resale Restricted
* Date: 2009/05/29
.MODEL RB531S-30 D
+ IS=794.81E-9
+ N=1.0551
+ RS=.88211
+ IKF=39.783
+ XTI=2
+ EG=.65
+ CJO=16.000E-12
+ M=.52714
+ VJ=.67271
+ ISR=514.55E-9
+ NR=1.7000
+ BV=30
+ TT=7.5020E-9
+ TRS1=0.003

* DRB531XN D model
* Date: 2008/10/21
.MODEL RB531XN D
+ IS=1.0210E-6
+ N=.975
+ RS=.527
+ IKF=30.120
+ XTI=2
+ EG=.6
+ CJO=20.033E-12
+ M=.52897
+ VJ=.46296
+ ISR=1.0909E-6
+ NR=1.2000
+ BV=30
+ TT=7.9300E-9

* DRB548W D model
* Date: 2008/10/21
.MODEL RB548W D
+ IS=47.910E-9
+ N=1.0580
+ RS=.769
+ IKF=23.222
+ XTI=2
+ EG=.66
+ CJO=17.161E-12
+ M=.51745
+ VJ=.54354
+ ISR=18.006E-9
+ NR=1.2000
+ BV=30
+ TT=13.000E-9

* DRB557W D model
* Date: 2008/10/20
.MODEL RB557W D
+ IS=841.87E-9
+ N=1.0844
+ RS=.72135
+ IKF=13.277
+ XTI=2
+ EG=.6
+ CJO=18.647E-12
+ M=.53193
+ VJ=.54317
+ ISR=446.45E-9
+ NR=1.4000
+ BV=30
+ TT=6.9000E-9

* DRB558W D model
* Date: 2008/10/21
.MODEL RB558W D
+ IS=795.50E-9
+ N=1.0510
+ RS=.864
+ IKF=45.154
+ XTI=2
+ EG=.62
+ CJO=17.116E-12
+ M=.50871
+ VJ=.5777
+ ISR=449.95E-9
+ NR=1.4000
+ BV=30
+ TT=13.500E-9

* DRB705D D model
* Date: 2008/10/21
.MODEL RB705D D
+ IS=40.052E-9
+ N=1.0719
+ RS=10.999
+ IKF=8.4500
+ XTI=2
+ EG=.6
+ CJO=2.2269E-12
+ M=.31809
+ VJ=.63828
+ ISR=32.517E-9
+ NR=1.3000
+ BV=40
+ TT=10.200E-9

* DRB706D-40 D model
* Date: 2008/10/21
.MODEL RB706D-40 D
+ IS=40.052E-9
+ N=1.0719
+ RS=10.999
+ IKF=8.4500
+ XTI=2
+ EG=.6
+ CJO=2.2269E-12
+ M=.31809
+ VJ=.63828
+ ISR=32.517E-9
+ NR=1.3000
+ BV=45
+ TT=10.200E-9

* DRB706F-40 D model
* Date: 2008/10/21
.MODEL RB706F-40 D
+ IS=40.052E-9
+ N=1.0719
+ RS=10.999
+ IKF=8.4500
+ XTI=2
+ EG=.6
+ CJO=2.2269E-12
+ M=.31809
+ VJ=.63828
+ ISR=32.517E-9
+ NR=1.3000
+ BV=45
+ TT=10.200E-9

* DRB715F D model
* Date: 2008/10/21
.MODEL RB715F D
+ IS=40.052E-9
+ N=1.0719
+ RS=10.999
+ IKF=8.4500
+ XTI=2
+ EG=.6
+ CJO=2.2269E-12
+ M=.31809
+ VJ=.63828
+ ISR=32.517E-9
+ NR=1.3000
+ BV=40
+ TT=10.200E-9

* DRB715W D model
* Date: 2008/10/21
.MODEL RB715W D
+ IS=40.052E-9
+ N=1.0719
+ RS=10.999
+ IKF=8.4500
+ XTI=2
+ EG=.6
+ CJO=2.2269E-12
+ M=.31809
+ VJ=.63828
+ ISR=32.517E-9
+ NR=1.3000
+ BV=40
+ TT=10.200E-9

* DRB715Z D model
* Date: 2008/10/21
.MODEL RB715Z D
+ IS=40.052E-9
+ N=1.0719
+ RS=10.999
+ IKF=8.4500
+ XTI=2
+ EG=.6
+ CJO=2.2269E-12
+ M=.31809
+ VJ=.63828
+ ISR=32.517E-9
+ NR=1.3000
+ BV=40
+ TT=10.200E-9

* DRB717F D model
* Date: 2008/10/21
.MODEL RB717F D
+ IS=40.052E-9
+ N=1.0719
+ RS=10.999
+ IKF=8.4500
+ XTI=2
+ EG=.6
+ CJO=2.2269E-12
+ M=.31809
+ VJ=.63828
+ ISR=32.517E-9
+ NR=1.3000
+ BV=40
+ TT=10.200E-9

* DRB731U D model
* Date: 2008/10/21
.MODEL RB731U D
+ IS=40.052E-9
+ N=1.0719
+ RS=10.999
+ IKF=8.4500
+ XTI=2
+ EG=.6
+ CJO=2.2269E-12
+ M=.31809
+ VJ=.63828
+ ISR=32.517E-9
+ NR=1.3000
+ BV=40
+ TT=10.200E-9

* DRB731XN D model
* Date: 2008/10/21
.MODEL RB731XN D
+ IS=40.052E-9
+ N=1.0719
+ RS=10.999
+ IKF=8.4500
+ XTI=2
+ EG=.6
+ CJO=2.2269E-12
+ M=.31809
+ VJ=.63828
+ ISR=32.517E-9
+ NR=1.3000
+ BV=40
+ TT=10.200E-9

* DRB751CS-40 D model
* Date: 2008/10/21
.MODEL RB751CS-40 D
+ IS=35.777E-9
+ N=1.1234
+ RS=11.540
+ IKF=5.4426
+ XTI=2
+ EG=.63
+ CJO=1.9144E-12
+ M=.46578
+ VJ=.50335
+ ISR=11.424E-9
+ NR=1.3000
+ BV=40
+ TT=30.300E-9

* DRB751G-40 D model
* Date: 2008/10/21
.MODEL RB751G-40 D
+ IS=35.777E-9
+ N=1.1234
+ RS=11.540
+ IKF=5.4426
+ XTI=2
+ EG=.63
+ CJO=1.9144E-12
+ M=.46578
+ VJ=.50335
+ ISR=11.424E-9
+ NR=1.3000
+ BV=40
+ TT=30.300E-9

* DRB751S-40 D model
* Date: 2008/10/21
.MODEL RB751S-40 D
+ IS=40.052E-9
+ N=1.0719
+ RS=10.999
+ IKF=8.4500
+ XTI=2
+ EG=.6
+ CJO=2.2269E-12
+ M=.31809
+ VJ=.63828
+ ISR=32.517E-9
+ NR=1.3000
+ BV=40
+ TT=10.200E-9

* DRB751V-40 D model
* Date: 2008/10/21
.MODEL RB751V-40 D
+ IS=40.052E-9
+ N=1.0719
+ RS=10.999
+ IKF=8.4500
+ XTI=2
+ EG=.6
+ CJO=2.2269E-12
+ M=.31809
+ VJ=.63828
+ ISR=32.517E-9
+ NR=1.3000
+ BV=40
+ TT=10.200E-9

* DRB441Q-40 D model
* Date: 2008/10/21
.MODEL RB441Q-40 D
+ IS=178.01E-9
+ N=1.0241
+ RS=.80082
+ IKF=28.128E-3
+ XTI=2
+ EG=.55
+ CJO=20.117E-12
+ M=.4726
+ VJ=.69235
+ ISR=345.71E-9
+ NR=1.2000
+ BV=40
+ TT=2.5000E-9

* DRB721Q-40 D model
* Date: 2008/10/21
.MODEL RB721Q-40 D
+ IS=40.997E-9
+ N=1.1803
+ RS=7.1886
+ IKF=6.5400
+ XTI=2
+ EG=.62
+ CJO=2.9991E-12
+ M=.3046
+ VJ=.56639
+ ISR=3.0144E-9
+ NR=1.2000
+ BV=40
+ TT=8.0000E-9

* DRB021VA-90 D model
* Date: 2008/09/17
.MODEL RB021VA-90 D
+ IS=2.3053E-6
+ N=.99615
+ RS=.7725
+ IKF=1.8684
+ XTI=2
+ EG=.6
+ CJO=62.703E-12
+ M=.50751
+ VJ=.46412
+ ISR=1.0440E-6
+ BV=90
+ TT=14.100E-9

* DRB050L-40 D model
* Date: 2008/09/18
.MODEL RB050L-40 D
+ IS=1.2695E-6
+ N=1.0760
+ RS=20.664E-3
+ IKF=1.1754
+ XTI=2
+ EG=.69
+ CJO=648.17E-12
+ M=.53764
+ VJ=.47126
+ ISR=425.28E-9
+ BV=40
+ TT=5.5000E-9

* DRB050L-60 D model
* Model Generated by ROHM
* All Rights Reserved
* Commercial Use or 
* Resale Restricted
* Date: 2009/06/12
.MODEL RB050L-60 D
+ IS=1.0228E-6
+ N=1.0110
+ RS=48.012E-3
+ IKF=2.5263
+ XTI=2
+ EG=.69
+ CJO=600.00E-12
+ M=.59921
+ VJ=.75342
+ ISR=539.19E-9
+ NR=1.3000
+ BV=60
+ TT=8.6562E-9
+ TRS1=0.003

* DRB051L-40 D model
* Date: 2008/10/02
.MODEL RB051L-40 D
+ IS=13.547E-6
+ N=1.0015
+ RS=5.7814E-3
+ IKF=.52662
+ XTI=2
+ EG=.56
+ CJO=788.79E-12
+ M=.49696
+ VJ=.47761
+ ISR=16.444E-6
+ BV=40
+ TT=4.5000E-9

* DRB051M-2Y D model
* Date: 2008/10/02
.MODEL RB051M-2Y D
+ IS=39.601E-6
+ N=1.0328
+ RS=21.181E-3
+ IKF=1.6399
+ XTI=2
+ EG=.59
+ CJO=455.88E-12
+ M=.55865
+ VJ=.4644
+ ISR=21.128E-6
+ NR=1.2000
+ BV=20
+ TT=13.200E-9

* DRB055L-30 model
* Model Generated by ROHM
* All Rights Reserved
* Commercial Use or Resale Restricted
* Date: 2011/06/15
.MODEL RB055L-30 D
+ IS=820.95E-9
+ N=1.0230
+ RS=39.005E-3
+ IKF=3.0634
+ XTI=2
+ EG=.65
+ CJO=434.00E-12
+ M=.57773
+ VJ=.51164
+ ISR=534.63E-9
+ NR=1.3500
+ BV=30
+ TT=11.818E-9
+ TRS1=0.001

* DRB055L-40 D model
* Date: 2008/10/02
.MODEL RB055L-40 D
+ IS=676.60E-9
+ N=1.0250
+ RS=51.000E-3
+ IKF=39.341
+ XTI=2
+ EG=.69
+ CJO=334.80E-12
+ M=.527
+ VJ=.46
+ ISR=287.38E-9
+ BV=40
+ TT=11.300E-9

* DRB056L-40 D model
* Model Generated by ROHM
* All Rights Reserved
* Commercial Use or 
* Resale Restricted
* Date: 2009/06/12
.MODEL RB056L-40 D
+ IS=457.77E-9
+ N=1.0123
+ RS=61.964E-3
+ IKF=.78158
+ XTI=2
+ EG=.69
+ CJO=282.00E-12
+ M=.61264
+ VJ=.75058
+ ISR=332.67E-9
+ NR=1.3000
+ BV=40
+ TT=13.565E-9
+ TRS1=0.003

* DRB060L-40 D model
* Model Generated by ROHM
* All Rights Reserved
* Commercial Use or 
* Resale Restricted
* Date: 2009/10/07
.MODEL RB060L-40 D
+ IS=388.99E-9
+ N=.95711
+ RS=31.245E-3
+ IKF=.82605
+ XTI=2
+ EG=.69
+ CJO=542.24E-12
+ M=.5554
+ VJ=.83372
+ ISR=604.40E-9
+ BV=40
+ TT=4.9000E-9

* DRB060M-30 D model
* Date: 2008/10/02
.MODEL RB060M-30 D
+ IS=684.81E-9
+ N=1.0244
+ RS=44.953E-3
+ IKF=25.757
+ XTI=2
+ EG=.69
+ CJO=400.26E-12
+ M=.53071
+ VJ=.4532
+ ISR=386.49E-9
+ BV=30
+ TT=13.500E-9

* DRB060M-60 D model
* Model Generated by ROHM
* All Rights Reserved
* Commercial Use or Resale Restricted
* Date: 2011/06/02
.MODEL RB060M-60 D
+ IS=464.87E-9
+ N=1.0077
+ RS=58.719E-3
+ IKF=.18122
+ XTI=2
+ EG=.69
+ CJO=290.25E-12
+ M=.59592
+ VJ=.76036
+ FC=1.0000E-3
+ ISR=279.50E-9
+ NR=1.1000
+ BV=60
+ TT=12.000E-9
+ TRS1=0.002

* DRB061US-30 D model
* Model Generated by ROHM
* All Rights Reserved
* Commercial Use or Resale Restricted
* Date: 2011/06/09
.MODEL RB061US-30 D
+ IS=18.951E-6
+ N=.98416
+ RS=27.965E-3
+ IKF=6.9225
+ XTI=2
+ EG=.6
+ CJO=500.00E-12
+ M=.61602
+ VJ=.52656
+ ISR=28.733E-6
+ NR=1.4000
+ BV=30
+ TT=15.500E-9
+ TRS1=0.005

* DRB068L100 D model
* Model Generated by ROHM
* All Rights Reserved
* Commercial Use or Resale Restricted
* Date: 2010/11/25
.MODEL RB068L100 D
+ IS=13.893E-9
+ N=1.0128
+ RS=12.895E-3
+ IKF=.11401
+ XTI=2
+ EG=.8
+ CJO=403.00E-12
+ M=.5484
+ VJ=.76698
+ ISR=21.684E-9
+ NR=1.4000
+ BV=100
+ TT=18.000E-9

* DRB070M-30 D model
* Date: 2008/10/02
.MODEL RB070M-30 D
+ IS=528.86E-9
+ N=1.0226
+ RS=21.177E-3
+ IKF=.65301
+ XTI=2
+ EG=.69
+ CJO=333.11E-12
+ M=.54237
+ VJ=.45894
+ ISR=470.75E-9
+ BV=30
+ TT=14.500E-9

* DRB080L-30 D model
* Model Generated by ROHM
* All Rights Reserved
* Commercial Use or Resale Restricted
* Date: 2011/06/14
.MODEL RB080L-30 D
+ IS=1.5843E-6
+ N=1.0278
+ RS=12.171E-3
+ IKF=7.0797
+ XTI=2
+ EG=.65
+ CJO=1.1500E-9
+ M=.58971
+ VJ=.50372
+ ISR=674.35E-9
+ NR=1.4
+ BV=30
+ TT=16.832E-9
+ TRS1=0.003

* DRB081L-20 D model
* Date: 2008/10/02
.MODEL RB081L-20 D
+ IS=74.423E-6
+ N=1.0624
+ RS=4.7448E-3
+ IKF=.74655
+ XTI=2
+ EG=.57
+ CJO=1.0374E-9
+ M=.58406
+ VJ=.46343
+ ISR=13.610E-6
+ BV=25
+ TT=5.2000E-9

* DRB160L-40 D model
* Date: 2008/10/02
.MODEL RB160L-40 D
+ IS=326.48E-9
+ N=1.0152
+ RS=73.896E-3
+ IKF=.47933
+ XTI=2
+ EG=.69
+ CJO=184.10E-12
+ M=.48271
+ VJ=.40489
+ ISR=131.68E-9
+ BV=40
+ TT=16.000E-9

* DRB160L-60 D model
* Date: 2008/10/02
.MODEL RB160L-60 D
+ IS=180.92E-9
+ N=1.0304
+ RS=69.951E-3
+ IKF=.18204
+ XTI=2
+ EG=.69
+ CJO=185.10E-12
+ M=.49332
+ VJ=.43984
+ ISR=150.75E-9
+ BV=60
+ TT=24.000E-9

* DRB160L-90 D model
* Model Generated by ROHM
* All Rights Reserved
* Commercial Use or 
* Resale Restricted
* Date: 2009/10/07
.MODEL RB160L-90 D
+ IS=233.40E-9
+ N=.92201
+ RS=.19364
+ IKF=31.868E-3
+ XTI=2
+ EG=.65
+ CJO=140.90E-12
+ M=.58166
+ VJ=.89859
+ ISR=118.39E-9
+ BV=95
+ TT=14.058E-9

* DRB160M-30 D model
* Date: 2008/10/02
.MODEL RB160M-30 D
+ IS=1.6002E-6
+ N=1.0362
+ RS=42.605E-3
+ IKF=.4422
+ XTI=2
+ EG=.69
+ CJO=294.15E-12
+ M=.51409
+ VJ=.41465
+ ISR=374.04E-9
+ BV=30
+ TT=21.300E-9

* DRB160M-40 D model
* Date: 2008/10/02
.MODEL RB160M-40 D
+ IS=133.65E-9
+ N=.95277
+ RS=63.592E-3
+ IKF=5.1394
+ XTI=2
+ EG=.51
+ CJO=280.52E-12
+ M=.62835
+ VJ=.71137
+ ISR=164.28E-9
+ NR=1.2000
+ BV=40
+ TT=19.000E-9

* DRB160M-60 D model
* Date: 2008/10/02
.MODEL RB160M-60 D
+ IS=245.71E-9
+ N=.93892
+ RS=56.215E-3
+ IKF=46.870E-3
+ XTI=2
+ EG=.65
+ CJO=209.47E-12
+ M=.5166
+ VJ=.42273
+ ISR=214.58E-9
+ NR=1.7000
+ BV=60
+ TT=23.800E-9

* DRB160M-90 D model
* Date: 2008/09/12
.MODEL RB160M-90 D
+ IS=233.40E-9
+ N=.92201
+ RS=.19364
+ IKF=31.868E-3
+ XTI=2
+ EG=.65
+ CJO=141.32E-12
+ M=.51103
+ VJ=.54163
+ ISR=121.15E-9
+ BV=90
+ TT=14.058E-9

* DRB160SS-40 D model
* Model Generated by ROHM
* All Rights Reserved
* Commercial Use or Resale Restricted
* Date: 2011/06/08
.MODEL RB160SS-40 D
+ IS=311.89E-9
+ N=1.0277
+ RS=.10337
+ IKF=.15006
+ XTI=2
+ EG=.65
+ CJO=133.00E-12
+ M=.55223
+ VJ=.65475
+ ISR=191.51E-9
+ NR=1.2100
+ BV=40
+ TT=5.2500E-9

* DRB160VA-40 D model
* Date: 2008/10/02
.MODEL RB160VA-40 D
+ IS=271.63E-9
+ N=1.0878
+ RS=79.950E-3
+ IKF=.21125
+ XTI=2
+ EG=.69
+ CJO=123.06E-12
+ M=.50975
+ VJ=.44722
+ ISR=39.662E-9
+ BV=40
+ TT=19.800E-9

* DRB161L-40 D model
* Date: 2008/10/02
.MODEL RB161L-40 D
+ IS=21.838E-6
+ N=1.1037
+ RS=39.317E-3
+ IKF=6.0603
+ XTI=2
+ EG=.57
+ CJO=270.90E-12
+ M=.55361
+ VJ=.57419
+ ISR=9.3568E-6
+ BV=40
+ TT=21.800E-9

* DRB161M-20 D model
* Date: 2008/10/02
.MODEL RB161M-20 D
+ IS=47.873E-6
+ N=1.0674
+ RS=12.756E-3
+ IKF=.47478
+ XTI=2
+ EG=.55
+ CJO=350.27E-12
+ M=.60349
+ VJ=.64083
+ ISR=18.739E-6
+ BV=25
+ TT=20.200E-9

* DRB161SS-20 D model
* Model Generated by ROHM
* All Rights Reserved
* Commercial Use or Resale Restricted
* Date: 2011/06/07
.MODEL RB161SS-20 D
+ IS=46.790E-6
+ N=1.0826
+ RS=.10167
+ IKF=215.45
+ XTI=2
+ EG=.49
+ CJO=181.00E-12
+ M=.59872
+ VJ=.80378
+ ISR=42.887E-6
+ NR=1.3000
+ BV=30
+ TT=5.9000E-9

* DRB161VA-20 D model
* Date: 2008/10/02
.MODEL RB161VA-20 D
+ IS=40.337E-6
+ N=1.0742
+ RS=.10016
+ IKF=23.579
+ XTI=2
+ EG=.5
+ CJO=160.04E-12
+ M=.56976
+ VJ=.50517
+ ISR=15.589E-6
+ BV=30
+ TT=19.300E-9

* DRB162L-40 D model
* Model Generated by ROHM
* All Rights Reserved
* Commercial Use or 
* Resale Restricted
* Date: 2009/06/12
.MODEL RB162L-40 D
+ IS=147.83E-9
+ N=1.0212
+ RS=67.282E-3
+ IKF=.27595
+ XTI=2
+ EG=.69
+ CJO=170.00E-12
+ M=.56004
+ VJ=.78367
+ ISR=119.96E-9
+ NR=1.3000
+ BV=40
+ TT=14.058E-9
+ TRS1=0.003

* DRB162L-60 D model
* Model Generated by ROHM
* All Rights Reserved
* Commercial Use or 
* Resale Restricted
* Date: 2009/06/12
.MODEL RB162L-60 D
+ IS=209.48E-9
+ N=.98694
+ RS=70.560E-3
+ IKF=.10981
+ XTI=2
+ EG=.69
+ CJO=158.00E-12
+ M=.56493
+ VJ=.75786
+ ISR=220.98E-9
+ NR=1.3000
+ BV=60
+ TT=14.058E-9
+ TRS1=0.003

* DRB162M-40 D model
* Model Generated by ROHM
* All Rights Reserved
* Commercial Use or 
* Resale Restricted
* Date: 2009/06/11
.MODEL RB162M-40 D
+ IS=246.35E-9
+ N=1.0001
+ RS=74.598E-3
+ IKF=.16687
+ XTI=2
+ EG=.69
+ CJO=150.00E-12
+ M=.55243
+ VJ=.77313
+ ISR=203.53E-9
+ NR=1.6000
+ BV=40
+ TT=13.565E-9
+ TRS1=0.003

* DRB162M-60 D model
* Model Generated by ROHM
* All Rights Reserved
* Commercial Use or 
* Resale Restricted
* Date: 2009/06/11
.MODEL RB162M-60 D
+ IS=239.63E-9
+ N=.98885
+ RS=79.949E-3
+ IKF=.11677
+ XTI=2
+ EG=.69
+ CJO=160.00E-12
+ M=.57138
+ VJ=.75216
+ ISR=211.24E-9
+ NR=1.5000
+ BV=60
+ TT=13.811E-9
+ TRS1=0.003

* DRB162VA-20 D model
* Date: 2008/10/02
.MODEL RB162VA-20 D
+ IS=34.907E-6
+ N=.9947
+ RS=4.3098E-3
+ IKF=.35077
+ XTI=2
+ EG=.59
+ CJO=178.07E-12
+ M=.5229
+ VJ=.44257
+ ISR=27.785E-6
+ NR=1.2000
+ BV=25
+ TT=16.300E-9

* DRB400D D model
* Date: 2008/10/02
.MODEL RB400D D
+ IS=342.65E-9
+ N=1.0902
+ RS=.20871
+ IKF=23.924
+ XTI=2
+ EG=.69
+ CJO=126.05E-12
+ M=.48139
+ VJ=.41776
+ ISR=78.020E-9
+ BV=40
+ TT=19.500E-9

* DRB400VA-50 D model
* Date: 2008/10/02
.MODEL RB400VA-50 D
+ IS=342.65E-9
+ N=1.0902
+ RS=.20871
+ IKF=23.924
+ XTI=2
+ EG=.69
+ CJO=126.05E-12
+ M=.48139
+ VJ=.41776
+ ISR=78.020E-9
+ BV=50
+ TT=19.500E-9

* DRB411D D model
* Date: 2008/09/18
.MODEL RB411D D
+ IS=1.3982E-6
+ N=.86378
+ RS=30.244E-3
+ IKF=4.7477E-3
+ XTI=2
+ EG=.62
+ CJO=71.872E-12
+ M=.44153
+ VJ=.52973
+ ISR=1.2606E-6
+ BV=40
+ TT=12.578E-9

* DRB411VA-50 D model
* Date: 2008/10/02
.MODEL RB411VA-50 D
+ IS=3.7074E-6
+ N=1.0130
+ RS=.18565
+ IKF=.15491
+ XTI=2
+ EG=.6
+ CJO=95.043E-12
+ M=.56662
+ VJ=.68244
+ ISR=1.0615E-6
+ BV=50
+ TT=12.600E-9

* DRB461F D model
* Date: 2008/10/02
.MODEL RB461F D
+ IS=10.230E-6
+ N=1.0479
+ RS=95.969E-3
+ IKF=57.251E-3
+ XTI=2
+ EG=.55
+ CJO=85.871E-12
+ M=.52099
+ VJ=.54831
+ ISR=807.81E-9
+ BV=25
+ TT=23.700E-9

* DRB491D D model
* Date: 2008/10/02
.MODEL RB491D D
+ IS=7.5944E-6
+ N=.98802
+ RS=88.395E-3
+ IKF=1.1635
+ XTI=2
+ EG=.58
+ CJO=170.41E-12
+ M=.52686
+ VJ=.45009
+ ISR=2.3660E-6
+ BV=25
+ TT=18.800E-9

* DRB496EA D model
* Date: 2008/10/03
.MODEL RB496EA D
+ IS=14.900E-6
+ N=1.0463
+ RS=80.016E-3
+ IKF=45.160
+ XTI=2
+ EG=.6
+ CJO=234.12E-12
+ M=.51188
+ VJ=.41541
+ ISR=9.0530E-6
+ BV=20
+ TT=14.500E-9

* DRB496KA D model
* Date: 2008/10/03
.MODEL RB496KA D
+ IS=19.046E-6
+ N=1.0558
+ RS=53.697E-3
+ IKF=.3658
+ XTI=2
+ EG=.57
+ CJO=152.52E-12
+ M=.54951
+ VJ=.44729
+ ISR=10.082E-6
+ NR=1.7000
+ BV=20
+ TT=83.800E-9

* DRB550EA D model
* Date: 2008/09/17
.MODEL RB550EA D
+ IS=94.506E-9
+ N=.91036
+ RS=47.955E-3
+ IKF=65.446E-3
+ XTI=2
+ EG=.61
+ CJO=172.00E-12
+ M=.54621
+ VJ=.4399
+ ISR=201.27E-9
+ NR=1.7000
+ BV=30
+ TT=16.031E-9

* DRB550SS-30 D model
* Model Generated by ROHM
* All Rights Reserved
* Commercial Use or Resale Restricted
* Date: 2011/06/09
.MODEL RB550SS-30 D
+ IS=105.75E-9
+ N=1.0125
+ RS=.16369
+ IKF=.17809
+ XTI=2
+ EG=.67
+ CJO=56.300E-12
+ M=.59154
+ VJ=.45777
+ ISR=74.398E-9
+ NR=1.3000
+ BV=30
+ TT=3.0000E-9
+ TRS1=0.004

* DRB550VA-30 D model
* Date: 2008/9/17
.MODEL RB550VA-30 D
+ IS=94.506E-9
+ N=.91036
+ RS=47.955E-3
+ IKF=65.446E-3
+ XTI=2
+ EG=.61
+ CJO=172.00E-12
+ M=.54621
+ VJ=.4399
+ ISR=201.27E-9
+ NR=1.7000
+ BV=30
+ TT=16.031E-9

* DRB551SS-30 D model
* Model Generated by ROHM
* All Rights Reserved
* Commercial Use or Resale Restricted
* Date: 2011/06/09
.MODEL RB551SS-30 D
+ IS=2.2551E-6
+ N=.91822
+ RS=.23078
+ IKF=832.79
+ XTI=2
+ EG=.55
+ CJO=67.000E-12
+ M=.67348
+ VJ=.59177
+ ISR=3.5061E-6
+ NR=1.1000
+ BV=30
+ TT=2.90E-9
+ TRS1=0.003

* DRB551V-30 D model
* Date: 2008/10/03
.MODEL RB551V-30 D
+ IS=1.6925E-6
+ N=.9771
+ RS=.19891
+ IKF=2.4432
+ XTI=2
+ EG=.63
+ CJO=63.854E-12
+ M=.59715
+ VJ=.72209
+ ISR=3.3852E-6
+ BV=30
+ TT=14.700E-9

* DRB050LA-30 D model
* Date: 2008/10/02
.MODEL RB050LA-30 D
+ IS=1.1561E-6
+ N=.99252
+ RS=611.84E-6
+ IKF=.89758
+ XTI=2
+ EG=.69
+ CJO=1.1025E-9
+ M=.58736
+ VJ=.61767
+ ISR=651.47E-9
+ NR=1.6000
+ BV=30
+ TT=1.2000E-9

* DRB050LA-40 D model
* Date: 2008/10/02
.MODEL RB050LA-40 D
+ IS=388.99E-9
+ N=.95711
+ RS=31.245E-3
+ IKF=.82605
+ XTI=2
+ EG=.69
+ CJO=624.94E-12
+ M=.51885
+ VJ=.48624
+ ISR=518.43E-9
+ BV=40
+ TT=4.9000E-9

* DRB051LA-40 D model
* Date: 2008/10/02
.MODEL RB051LA-40 D
+ IS=10.427E-6
+ N=.9549
+ RS=5.5280E-3
+ IKF=.35614
+ XTI=2
+ EG=.55
+ CJO=788.79E-12
+ M=.49696
+ VJ=.47761
+ ISR=16.926E-6
+ BV=40
+ TT=4.5000E-9

* DRB055LA-40 D model
* Date: 2008/10/16
.MODEL RB055LA-40 D
+ IS=676.60E-9
+ N=1.0250
+ RS=51.000E-3
+ IKF=39.341
+ XTI=2
+ EG=.69
+ CJO=334.80E-12
+ M=.527
+ VJ=.46
+ ISR=287.38E-9
+ BV=40
+ TT=12.500E-9

* DRB160A-30 D model
* Date: 2008/10/02
.MODEL RB160A-30 D
+ IS=1.6002E-6
+ N=1.0362
+ RS=42.605E-3
+ IKF=.4422
+ XTI=2
+ EG=.69
+ CJO=294.15E-12
+ M=.51409
+ VJ=.41465
+ ISR=374.04E-9
+ BV=30
+ TT=21.300E-9

* DRB160A-40 D model
* Date: 2008/10/02
.MODEL RB160A-40 D
+ IS=133.65E-9
+ N=.95277
+ RS=63.592E-3
+ IKF=5.1394
+ XTI=2
+ EG=.51
+ CJO=280.52E-12
+ M=.62835
+ VJ=.71137
+ ISR=164.28E-9
+ NR=1.2000
+ BV=40
+ TT=19.000E-9

* DRB160A-60 D model
* Date: 2008/10/02
.MODEL RB160A-60 D
+ IS=245.71E-9
+ N=.93892
+ RS=56.215E-3
+ IKF=46.870E-3
+ XTI=2
+ EG=.65
+ CJO=209.47E-12
+ M=.5166
+ VJ=.42273
+ ISR=214.58E-9
+ NR=1.7000
+ BV=60
+ TT=23.183E-9

* DRB160A-90 D model
* Date: 2008/09/12
.MODEL RB160A-90 D
+ IS=233.40E-9
+ N=.92201
+ RS=.19364
+ IKF=31.868E-3
+ XTI=2
+ EG=.65
+ CJO=141.32E-12
+ M=.51103
+ VJ=.54163
+ ISR=121.15E-9
+ BV=90
+ TT=14.058E-9

* DRB201A60 D model
* Date: 2008/10/02
.MODEL RB201A60 D
+ IS=804.34E-9
+ N=1.0253
+ RS=75.320E-3
+ IKF=55.433
+ XTI=2
+ EG=.69
+ CJO=291.91E-12
+ M=.51945
+ VJ=.4583
+ ISR=214.30E-9
+ BV=60
+ TT=15.600E-9

* DRB075B40S D model
* Date: 2008/10/03
.MODEL RB075B40S D
+ IS=13.735E-9
+ N=1.0446
+ RS=23.202E-3
+ IKF=1.7341
+ XTI=2
+ EG=.83
+ CJO=622.51E-12
+ M=.47333
+ VJ=.45365
+ ISR=4.7559E-9
+ BV=40
+ TT=17.300E-9

* DRB085B-30 D model
* Date: 2008/10/03
.MODEL RB085B-30 D
+ IS=3.0956E-6
+ N=1.0246
+ RS=13.858E-3
+ IKF=10.939
+ XTI=2
+ EG=.69
+ CJO=1.6007E-9
+ M=.55825
+ VJ=.46333
+ ISR=2.1031E-6
+ BV=35
+ TT=8.0000E-9

* DRB085B-40 D model
* Date: 2008/10/03
.MODEL RB085B-40 D
+ IS=862.92E-9
+ N=.96991
+ RS=16.333E-3
+ IKF=1.4671
+ XTI=2
+ EG=.69
+ CJO=827.17E-12
+ M=.52639
+ VJ=.55189
+ ISR=1.3610E-6
+ BV=45
+ TT=5.8000E-9

* DRB085B-90 D model
* Date: 2008/10/03
.MODEL RB085B-90 D
+ IS=2.0267E-6
+ N=1.0611
+ RS=60.345E-3
+ IKF=.48399
+ XTI=2
+ EG=.69
+ CJO=430.18E-12
+ M=.47528
+ VJ=.42493
+ ISR=565.41E-9
+ BV=90
+ TT=4.8000E-9

* DRB085T-40 D model
* Date: 2008/10/03
.MODEL RB085T-40 D
+ IS=607.87E-9
+ N=.95555
+ RS=15.210E-3
+ IKF=1.1017
+ XTI=2
+ EG=.69
+ CJO=947.00E-12
+ M=.56436
+ VJ=.5091
+ ISR=1.1665E-6
+ NR=1.7000
+ BV=45
+ TT=6.2000E-9

* DRB085T-60 D model
* Date: 2008/10/03
.MODEL RB085T-60 D
+ IS=1.0632E-6
+ N=.98197
+ RS=22.554E-3
+ IKF=1.7804
+ XTI=2
+ EG=.69
+ CJO=804.88E-12
+ M=.5316
+ VJ=.47394
+ ISR=1.3051E-6
+ BV=60
+ TT=800.00E-12

* DRB085T-90 D model
* Date: 2008/10/03
.MODEL RB085T-90 D
+ IS=1.7554E-6
+ N=1.0525
+ RS=66.179E-3
+ IKF=1.0122
+ XTI=2
+ EG=.69
+ CJO=484.17E-12
+ M=.51041
+ VJ=.42908
+ ISR=439.27E-9
+ BV=90
+ TT=4.8000E-9

* DRB095B-30 D model
* Date: 2008/10/03
.MODEL RB095B-30 D
+ IS=4.0601E-6
+ N=1.0359
+ RS=8.0091E-3
+ IKF=1.8905
+ XTI=2
+ EG=.65
+ CJO=1.6742E-9
+ M=.55594
+ VJ=.446
+ ISR=1.5246E-6
+ BV=35
+ TT=6.5000E-9

* DRB095B-40 D model
* Date: 2008/10/03
.MODEL RB095B-40 D
+ IS=2.2192E-6
+ N=1.1017
+ RS=12.065E-3
+ IKF=.97887
+ XTI=2
+ EG=.69
+ CJO=644.50E-12
+ M=.53465
+ VJ=.42877
+ ISR=605.81E-9
+ BV=45
+ TT=11.400E-9