******************************************************************
* 
* EPCOS AG			EPCOS AG
* Bereich Induktivitäten	Inductors Division
* Entwicklung			Development Department
* D-89520 Heidenheim		D-89520 Heidenheim
* In den Seewiesen 26		In den Seewiesen 26
*
* Allgemeines			General
*	Wolfgang Sammet
*	Tel  +49 (0) 7321 326-220
*	FAX  +49 (0) 7321 326-628
*	Email wolfgang.sammet@epcos.com
*
*
* Modellierung und Simulation	Modeling and simulation
*	Stefan Schefler
*	Tel  +49 (0) 7321 326-446
*	FAX  +49 (0) 7321 326-628
*	Email stefan.schefler@epcos.com
*
*
******************************************************************
* Bitte lesen Sie die Hinweise in der Datei "Liesmich.txt" .
* Please read the hints in "Readme.txt" .
******************************************************************
*
* 
* Library SIMID_1210.lib 
* Version 1.67 (Donnerstag, 22. Juli 2010 17:08 Uhr CEST)
* 
******************************************************************
* SPICE-Simulationsdaten für SIMID 1210
* SPICE simulation data for SIMID 1210
* 	SIMID_1210
*
******************************************************************
*
******************************************************************
* Library für PSPICE
* 
* Libs für weitere Spice-Versionen sind verfügbar (HSPICE ..)
*	
******************************************************************
*
.subckt SIMID_1210_BASE1 A1 A2  PARAMS:  
+	ls11_a=10.6084u rs11_a=4.501 cp11_a=206.9738f rp11_a=154.4411k 
+	lwira1_a=7.6750n lwa1_a=185.4884n rwa1_a=1.5101 lwb1_a=83.1561n 
+	rwb1_a=39.9753 kw1a1_a=0.9999 
ls1_b	A1 31 	{ls11_a}  
rs1_b	31 A2 	{rs11_a}  
cp1_b	A1 A2 	{cp11_a}  
rp1_b	A1 A2 	{rp11_a}  
lwira_b	900 0 	{lwira1_a}  
lwa_b	900 901 	{lwa1_a}  
rwa_b	901 0 	{rwa1_a}  
lwb_b	900 902 	{lwb1_a}  
rwb_b	902 0 	{rwb1_a}  
kw1a_b	ls1_b lwira_b	{kw1a1_a}
.ENDS

*
* B82412A1103K000 SIMID 1210-01 Low profile (10 uH +-10%)
*
.subckt B82412A1103K000 A1 A2   PARAMS:  
+	ls11=10.6084u rs11=4.501 cp11=206.9738f rp11=154.4411k 
+	lwira1=7.6750n lwa1=185.4884n rwa1=1.5101 lwb1=83.1561n 
+	rwb1=39.9753 kw1a1=0.9999 
X1 A1 A2 SIMID_1210_BASE1  PARAMS:  ls11_a={ls11} 
+	rs11_a={rs11} cp11_a={cp11} rp11_a={rp11} 
+	lwira1_a={lwira1} lwa1_a={lwa1} rwa1_a={rwa1} 
+	lwb1_a={lwb1} rwb1_a={rwb1} kw1a1_a={kw1a1} 
.ENDS

*
* B82412A1122J000 SIMID 1210-01 Low profile (1.2 uH +-5%)
*
.subckt B82412A1122J000 A1 A2   PARAMS:  
+	ls11=1.1599u rs11=396.8m cp11=221.3717f rp11=13.3856k 
+	lwira1=7.6750n lwa1=153.5486n rwa1=1.2311 lwb1=146.6993n 
+	rwb1=30.2231 kw1a1=0.9999 
X1 A1 A2 SIMID_1210_BASE1  PARAMS:  ls11_a={ls11} 
+	rs11_a={rs11} cp11_a={cp11} rp11_a={rp11} 
+	lwira1_a={lwira1} lwa1_a={lwa1} rwa1_a={rwa1} 
+	lwb1_a={lwb1} rwb1_a={rwb1} kw1a1_a={kw1a1} 
.ENDS

*
* B82412A1152K000 SIMID 1210-01 Low profile (1.5 uH +-10%)
*
.subckt B82412A1152K000 A1 A2   PARAMS:  
+	ls11=1.5866u rs11=443.8m cp11=212.4770f rp11=16.9282k 
+	lwira1=7.6750n lwa1=121.4810n rwa1=518.0156m lwb1=127.8746n 
+	rwb1=18.9807 kw1a1=0.9999 
X1 A1 A2 SIMID_1210_BASE1  PARAMS:  ls11_a={ls11} 
+	rs11_a={rs11} cp11_a={cp11} rp11_a={rp11} 
+	lwira1_a={lwira1} lwa1_a={lwa1} rwa1_a={rwa1} 
+	lwb1_a={lwb1} rwb1_a={rwb1} kw1a1_a={kw1a1} 
.ENDS

*
* B82412A1222K000 SIMID 1210-01 Low profile (2.2 uH +-10%)
*
.subckt B82412A1222K000 A1 A2   PARAMS:  
+	ls11=2.2212u rs11=546.3m cp11=215.5855f rp11=23.2953k 
+	lwira1=7.6750n lwa1=135.7293n rwa1=663.2608m lwb1=120.6156n 
+	rwb1=18.3138 kw1a1=0.9999 
X1 A1 A2 SIMID_1210_BASE1  PARAMS:  ls11_a={ls11} 
+	rs11_a={rs11} cp11_a={cp11} rp11_a={rp11} 
+	lwira1_a={lwira1} lwa1_a={lwa1} rwa1_a={rwa1} 
+	lwb1_a={lwb1} rwb1_a={rwb1} kw1a1_a={kw1a1} 
.ENDS

*
* B82412A1272J000 SIMID 1210-01 Low profile (2.7 uH +-5%)
*
.subckt B82412A1272J000 A1 A2   PARAMS:  
+	ls11=2.7331u rs11=833m cp11=194.5409f rp11=26.6615k 
+	lwira1=7.6750n lwa1=122.4944n rwa1=579.0716m lwb1=134.3357n 
+	rwb1=27.5738 kw1a1=0.9999 
X1 A1 A2 SIMID_1210_BASE1  PARAMS:  ls11_a={ls11} 
+	rs11_a={rs11} cp11_a={cp11} rp11_a={rp11} 
+	lwira1_a={lwira1} lwa1_a={lwa1} rwa1_a={rwa1} 
+	lwb1_a={lwb1} rwb1_a={rwb1} kw1a1_a={kw1a1} 
.ENDS

*
* B82412A1332K000 SIMID 1210-01 Low profile (3.3 uH +-10%)
*
.subckt B82412A1332K000 A1 A2   PARAMS:  
+	ls11=3.4451u rs11=936m cp11=204.9442f rp11=34.8512k 
+	lwira1=7.6750n lwa1=122.7760n rwa1=493.3540m lwb1=122.2307n 
+	rwb1=20.8671 kw1a1=0.9999 
X1 A1 A2 SIMID_1210_BASE1  PARAMS:  ls11_a={ls11} 
+	rs11_a={rs11} cp11_a={cp11} rp11_a={rp11} 
+	lwira1_a={lwira1} lwa1_a={lwa1} rwa1_a={rwa1} 
+	lwb1_a={lwb1} rwb1_a={rwb1} kw1a1_a={kw1a1} 
.ENDS

*
* B82412A1392J000 SIMID 1210-01 Low profile (3.9 uH +-5%)
*
.subckt B82412A1392J000 A1 A2   PARAMS:  
+	ls11=4.0113u rs11=1.159 cp11=206.3588f rp11=37.9670k 
+	lwira1=7.6750n lwa1=136.5251n rwa1=587.5560m lwb1=123.0334n 
+	rwb1=20.9483 kw1a1=0.9999 
X1 A1 A2 SIMID_1210_BASE1  PARAMS:  ls11_a={ls11} 
+	rs11_a={rs11} cp11_a={cp11} rp11_a={rp11} 
+	lwira1_a={lwira1} lwa1_a={lwa1} rwa1_a={rwa1} 
+	lwb1_a={lwb1} rwb1_a={rwb1} kw1a1_a={kw1a1} 
.ENDS

*
* B82412A1472J000 SIMID 1210-01 Low profile (4.7 uH +-5%)
*
.subckt B82412A1472J000 A1 A2   PARAMS:  
+	ls11=4.8900u rs11=1.622 cp11=192.2091f rp11=46.7887k 
+	lwira1=7.6750n lwa1=152.2579n rwa1=813.4907m lwb1=129.4448n 
+	rwb1=25.5516 kw1a1=0.9999 
X1 A1 A2 SIMID_1210_BASE1  PARAMS:  ls11_a={ls11} 
+	rs11_a={rs11} cp11_a={cp11} rp11_a={rp11} 
+	lwira1_a={lwira1} lwa1_a={lwa1} rwa1_a={rwa1} 
+	lwb1_a={lwb1} rwb1_a={rwb1} kw1a1_a={kw1a1} 
.ENDS

*
* B82412A1562K000 SIMID 1210-01 Low profile (5.6 uH +-10%)
*
.subckt B82412A1562K000 A1 A2   PARAMS:  
+	ls11=5.8719u rs11=2.159 cp11=203.5444f rp11=56.7558k 
+	lwira1=7.6750n lwa1=176.7326n rwa1=1.0228 lwb1=131.5048n 
+	rwb1=28.0646 kw1a1=0.9999 
X1 A1 A2 SIMID_1210_BASE1  PARAMS:  ls11_a={ls11} 
+	rs11_a={rs11} cp11_a={cp11} rp11_a={rp11} 
+	lwira1_a={lwira1} lwa1_a={lwa1} rwa1_a={rwa1} 
+	lwb1_a={lwb1} rwb1_a={rwb1} kw1a1_a={kw1a1} 
.ENDS

*
* B82412A1822K000 SIMID 1210-01 Low profile (8.2 uH +-10%)
*
.subckt B82412A1822K000 A1 A2   PARAMS:  
+	ls11=8.3899u rs11=3.269 cp11=195.6680f rp11=82.6878k 
+	lwira1=7.6750n lwa1=129.4210n rwa1=768.0820m lwb1=118.9973n 
+	rwb1=29.6029 kw1a1=999.9990m 
X1 A1 A2 SIMID_1210_BASE1  PARAMS:  ls11_a={ls11} 
+	rs11_a={rs11} cp11_a={cp11} rp11_a={rp11} 
+	lwira1_a={lwira1} lwa1_a={lwa1} rwa1_a={rwa1} 
+	lwb1_a={lwb1} rwb1_a={rwb1} kw1a1_a={kw1a1} 
.ENDS

*
* B82412A3101K000 SIMID 1210-01 Low profile (100 nH +-10%)
*
.subckt B82412A3101K000 A1 A2   PARAMS:  
+	ls11=97.1064n rs11=224.5m cp11=169.0913f rp11=60.0783k 
+	lwira1=1.8980n lwa1=40.1567n rwa1=3.3434 lwb1=102.2408n 
+	rwb1=72.1934 kw1a1=0.9999 
X1 A1 A2 SIMID_1210_BASE1  PARAMS:  ls11_a={ls11} 
+	rs11_a={rs11} cp11_a={cp11} rp11_a={rp11} 
+	lwira1_a={lwira1} lwa1_a={lwa1} rwa1_a={rwa1} 
+	lwb1_a={lwb1} rwb1_a={rwb1} kw1a1_a={kw1a1} 
.ENDS

*
* B82412A3121J000 SIMID 1210-01 Low profile (120 nH +-5%)
*
.subckt B82412A3121J000 A1 A2   PARAMS:  
+	ls11=115.6601n rs11=258.8m cp11=165.7828f rp11=63.0023k 
+	lwira1=1.8980n lwa1=40.9732n rwa1=3.1523 lwb1=98.3054n 
+	rwb1=63.7141 kw1a1=0.9999 
X1 A1 A2 SIMID_1210_BASE1  PARAMS:  ls11_a={ls11} 
+	rs11_a={rs11} cp11_a={cp11} rp11_a={rp11} 
+	lwira1_a={lwira1} lwa1_a={lwa1} rwa1_a={rwa1} 
+	lwb1_a={lwb1} rwb1_a={rwb1} kw1a1_a={kw1a1} 
.ENDS

*
* B82412A3151J000 SIMID 1210-01 Low profile (150 nH +-5%)
*
.subckt B82412A3151J000 A1 A2   PARAMS:  
+	ls11=148.5979n rs11=290.3m cp11=178.5919f rp11=62.0371k 
+	lwira1=1.8980n lwa1=35.5162n rwa1=2.2704 lwb1=82.2285n 
+	rwb1=44.5470 kw1a1=0.9999 
X1 A1 A2 SIMID_1210_BASE1  PARAMS:  ls11_a={ls11} 
+	rs11_a={rs11} cp11_a={cp11} rp11_a={rp11} 
+	lwira1_a={lwira1} lwa1_a={lwa1} rwa1_a={rwa1} 
+	lwb1_a={lwb1} rwb1_a={rwb1} kw1a1_a={kw1a1} 
.ENDS

*
* B82412A3220J000 SIMID 1210-01 Low profile (22 nH +-5%)
*
.subckt B82412A3220J000 A1 A2   PARAMS:  
+	ls11=20.4040n rs11=99.39m cp11=137.0598f rp11=36.7644k 
+	lwira1=1.8980n lwa1=37.2591n rwa1=5.9945 lwb1=88.2123n 
+	rwb1=123.5193 kw1a1=0.9999 
X1 A1 A2 SIMID_1210_BASE1  PARAMS:  ls11_a={ls11} 
+	rs11_a={rs11} cp11_a={cp11} rp11_a={rp11} 
+	lwira1_a={lwira1} lwa1_a={lwa1} rwa1_a={rwa1} 
+	lwb1_a={lwb1} rwb1_a={rwb1} kw1a1_a={kw1a1} 
.ENDS

*
* B82412A3271K000 SIMID 1210-01 Low profile (270 nH +-10%)
*
.subckt B82412A3271K000 A1 A2   PARAMS:  
+	ls11=251.9981n rs11=420.7m cp11=180.7172f rp11=67.0066k 
+	lwira1=1.8980n lwa1=37.5499n rwa1=2.1393 lwb1=75.9493n 
+	rwb1=39.2652 kw1a1=0.9999 
X1 A1 A2 SIMID_1210_BASE1  PARAMS:  ls11_a={ls11} 
+	rs11_a={rs11} cp11_a={cp11} rp11_a={rp11} 
+	lwira1_a={lwira1} lwa1_a={lwa1} rwa1_a={rwa1} 
+	lwb1_a={lwb1} rwb1_a={rwb1} kw1a1_a={kw1a1} 
.ENDS

*
* B82412A3391J000 SIMID 1210-01 Low profile (390 nH +-5%)
*
.subckt B82412A3391J000 A1 A2   PARAMS:  
+	ls11=387.9121n rs11=570.5m cp11=183.6254f rp11=67.7035k 
+	lwira1=1.8980n lwa1=38.8454n rwa1=1.8352 lwb1=76.2623n 
+	rwb1=25.7566 kw1a1=0.9999 
X1 A1 A2 SIMID_1210_BASE1  PARAMS:  ls11_a={ls11} 
+	rs11_a={rs11} cp11_a={cp11} rp11_a={rp11} 
+	lwira1_a={lwira1} lwa1_a={lwa1} rwa1_a={rwa1} 
+	lwb1_a={lwb1} rwb1_a={rwb1} kw1a1_a={kw1a1} 
.ENDS

*
* B82412A3470J000 SIMID 1210-01 Low profile (47 nH +-5%)
*
.subckt B82412A3470J000 A1 A2   PARAMS:  
+	ls11=44.9243n rs11=164.12m cp11=135.7684f rp11=65.3308k 
+	lwira1=1.8980n lwa1=35.8411n rwa1=4.2160 lwb1=84.9051n 
+	rwb1=94.2139 kw1a1=0.9999 
X1 A1 A2 SIMID_1210_BASE1  PARAMS:  ls11_a={ls11} 
+	rs11_a={rs11} cp11_a={cp11} rp11_a={rp11} 
+	lwira1_a={lwira1} lwa1_a={lwa1} rwa1_a={rwa1} 
+	lwb1_a={lwb1} rwb1_a={rwb1} kw1a1_a={kw1a1} 
.ENDS

*
* B82412A3561J000 SIMID 1210-01 Low profile (560 nH +-5%)
*
.subckt B82412A3561J000 A1 A2   PARAMS:  
+	ls11=562.7484n rs11=899m cp11=186.9433f rp11=274.6453k 
+	lwira1=1.8980n lwa1=40.4292n rwa1=1.7498 lwb1=77.4696n 
+	rwb1=29.1817 kw1a1=0.9999 
X1 A1 A2 SIMID_1210_BASE1  PARAMS:  ls11_a={ls11} 
+	rs11_a={rs11} cp11_a={cp11} rp11_a={rp11} 
+	lwira1_a={lwira1} lwa1_a={lwa1} rwa1_a={rwa1} 
+	lwb1_a={lwb1} rwb1_a={rwb1} kw1a1_a={kw1a1} 
.ENDS

*
* B82412A3681K000 SIMID 1210-01 Low profile (680 nH +-10%)
*
.subckt B82412A3681K000 A1 A2   PARAMS:  
+	ls11=671.1254n rs11=979m cp11=156.1586f rp11=93.7027k 
+	lwira1=1.8980n lwa1=35.9372n rwa1=1.1364 lwb1=68.2303n 
+	rwb1=19.8809 kw1a1=999.9990m 
X1 A1 A2 SIMID_1210_BASE1  PARAMS:  ls11_a={ls11} 
+	rs11_a={rs11} cp11_a={cp11} rp11_a={rp11} 
+	lwira1_a={lwira1} lwa1_a={lwa1} rwa1_a={rwa1} 
+	lwb1_a={lwb1} rwb1_a={rwb1} kw1a1_a={kw1a1} 
.ENDS

*
* B82412A3821K000 SIMID 1210-01 Low profile (820 nH +-10%)
*
.subckt B82412A3821K000 A1 A2   PARAMS:  
+	ls11=808.6530n rs11=1.553 cp11=155.0976f rp11=115.6353k 
+	lwira1=1.8980n lwa1=43.8760n rwa1=1.4435 lwb1=72.4962n 
+	rwb1=23.4230 kw1a1=0.9999 
X1 A1 A2 SIMID_1210_BASE1  PARAMS:  ls11_a={ls11} 
+	rs11_a={rs11} cp11_a={cp11} rp11_a={rp11} 
+	lwira1_a={lwira1} lwa1_a={lwa1} rwa1_a={rwa1} 
+	lwb1_a={lwb1} rwb1_a={rwb1} kw1a1_a={kw1a1} 
.ENDS

*
* B82422A1102J100 SIMID 1210-100 High temperature (1 uH +-5%)
*
.subckt B82422A1102J100 A1 A2   PARAMS:  
+	ls11=1.0825u rs11=306.7m cp11=231.9145f rp11=8.0463k 
+	lwira1=1.3560n lwa1=25.9182n rwa1=125.9444m lwb1=15.3733n 
+	rwb1=2.8623 kw1a1=0.9999 
X1 A1 A2 SIMID_1210_BASE1  PARAMS:  ls11_a={ls11} 
+	rs11_a={rs11} cp11_a={cp11} rp11_a={rp11} 
+	lwira1_a={lwira1} lwa1_a={lwa1} rwa1_a={rwa1} 
+	lwb1_a={lwb1} rwb1_a={rwb1} kw1a1_a={kw1a1} 
.ENDS

*
* B82422A1102K000 SIMID 1210-A RF application (1 uH +-10%)
*
.subckt B82422A1102K000 A1 A2   PARAMS:  
+	ls11=1.0605u rs11=271m cp11=217.4893f rp11=6.0228k 
+	lwira1=5.8730n lwa1=56.6278n rwa1=244.9679m lwb1=50.3426n 
+	rwb1=11.7625 kw1a1=0.9999 
X1 A1 A2 SIMID_1210_BASE1  PARAMS:  ls11_a={ls11} 
+	rs11_a={rs11} cp11_a={cp11} rp11_a={rp11} 
+	lwira1_a={lwira1} lwa1_a={lwa1} rwa1_a={rwa1} 
+	lwb1_a={lwb1} rwb1_a={rwb1} kw1a1_a={kw1a1} 
.ENDS

*
* B82422A1103J000 SIMID 1210-A RF application (10 uH +-5%)
*
.subckt B82422A1103J000 A1 A2   PARAMS:  
+	ls11=10.5311u rs11=1.248 cp11=4.0495p rp11=16.0321k 
+	lwira1=5.8730n lwa1=67.4999n rwa1=146.9249m lwb1=164.4258n 
+	rwb1=1.7491 kw1a1=0.9999 
X1 A1 A2 SIMID_1210_BASE1  PARAMS:  ls11_a={ls11} 
+	rs11_a={rs11} cp11_a={cp11} rp11_a={rp11} 
+	lwira1_a={lwira1} lwa1_a={lwa1} rwa1_a={rwa1} 
+	lwb1_a={lwb1} rwb1_a={rwb1} kw1a1_a={kw1a1} 
.ENDS

*
* B82422A1103J100 SIMID 1210-100 High temperature (10 uH +-5%)
*
.subckt B82422A1103J100 A1 A2   PARAMS:  
+	ls11=10.3249u rs11=1.379 cp11=1.2989p rp11=31.8897k 
+	lwira1=1.3560n lwa1=31.0433n rwa1=132.0359m lwb1=36.2486n 
+	rwb1=1.4693 kw1a1=0.9999 
X1 A1 A2 SIMID_1210_BASE1  PARAMS:  ls11_a={ls11} 
+	rs11_a={rs11} cp11_a={cp11} rp11_a={rp11} 
+	lwira1_a={lwira1} lwa1_a={lwa1} rwa1_a={rwa1} 
+	lwb1_a={lwb1} rwb1_a={rwb1} kw1a1_a={kw1a1} 
.ENDS

*
* B82422A1104K000 SIMID 1210-A RF application (100 uH +-10%)
*
.subckt B82422A1104K000 A1 A2   PARAMS:  
+	ls11=97.9850u rs11=9.367 cp11=3.6977p rp11=135.1666k 
+	lwira1=5.8730n lwa1=124.3212n rwa1=276.7472m lwb1=122.5284n 
+	rwb1=2.6025 kw1a1=0.9999 
X1 A1 A2 SIMID_1210_BASE1  PARAMS:  ls11_a={ls11} 
+	rs11_a={rs11} cp11_a={cp11} rp11_a={rp11} 
+	lwira1_a={lwira1} lwa1_a={lwa1} rwa1_a={rwa1} 
+	lwb1_a={lwb1} rwb1_a={rwb1} kw1a1_a={kw1a1} 
.ENDS

*
* B82422A1104K100 SIMID 1210-100 High temperature (100 uH +-10%)
*
.subckt B82422A1104K100 A1 A2   PARAMS:  
+	ls11=98.1635u rs11=9.741 cp11=3.7919p rp11=94.8734k 
+	lwira1=1.3560n lwa1=32.0683n rwa1=44.9790m lwb1=60.4446n 
+	rwb1=458.1496m kw1a1=999.9990m 
X1 A1 A2 SIMID_1210_BASE1  PARAMS:  ls11_a={ls11} 
+	rs11_a={rs11} cp11_a={cp11} rp11_a={rp11} 
+	lwira1_a={lwira1} lwa1_a={lwa1} rwa1_a={rwa1} 
+	lwb1_a={lwb1} rwb1_a={rwb1} kw1a1_a={kw1a1} 
.ENDS

*
* B82422A1122J100 SIMID 1210-100 High temperature (1.2 uH +-5%)
*
.subckt B82422A1122J100 A1 A2   PARAMS:  
+	ls11=1.2209u rs11=326.3m cp11=235.5143f rp11=8.8788k 
+	lwira1=1.3560n lwa1=21.6617n rwa1=170.3787m lwb1=16.6192n 
+	rwb1=3.5816 kw1a1=0.9999 
X1 A1 A2 SIMID_1210_BASE1  PARAMS:  ls11_a={ls11} 
+	rs11_a={rs11} cp11_a={cp11} rp11_a={rp11} 
+	lwira1_a={lwira1} lwa1_a={lwa1} rwa1_a={rwa1} 
+	lwb1_a={lwb1} rwb1_a={rwb1} kw1a1_a={kw1a1} 
.ENDS

*
* B82422A1123J100 SIMID 1210-100 High temperature (12 uH +-5%)
*
.subckt B82422A1123J100 A1 A2   PARAMS:  
+	ls11=12.5759u rs11=1.434 cp11=1.5086p rp11=35.6749k 
+	lwira1=1.3560n lwa1=28.9784n rwa1=114.2566m lwb1=33.3802n 
+	rwb1=1.2406 kw1a1=0.9999 
X1 A1 A2 SIMID_1210_BASE1  PARAMS:  ls11_a={ls11} 
+	rs11_a={rs11} cp11_a={cp11} rp11_a={rp11} 
+	lwira1_a={lwira1} lwa1_a={lwa1} rwa1_a={rwa1} 
+	lwb1_a={lwb1} rwb1_a={rwb1} kw1a1_a={kw1a1} 
.ENDS

*
* B82422A1152J000 SIMID 1210-A RF application (1.5 uH +-5%)
*
.subckt B82422A1152J000 A1 A2   PARAMS:  
+	ls11=1.4472u rs11=348.6m cp11=201.2917f rp11=8.4069k 
+	lwira1=5.8730n lwa1=58.3037n rwa1=266.8360m lwb1=57.8995n 
+	rwb1=19.1970 kw1a1=0.9999 
X1 A1 A2 SIMID_1210_BASE1  PARAMS:  ls11_a={ls11} 
+	rs11_a={rs11} cp11_a={cp11} rp11_a={rp11} 
+	lwira1_a={lwira1} lwa1_a={lwa1} rwa1_a={rwa1} 
+	lwb1_a={lwb1} rwb1_a={rwb1} kw1a1_a={kw1a1} 
.ENDS

*
* B82422A1152J100 SIMID 1210-100 High temperature (1.5 uH +-5%)
*
.subckt B82422A1152J100 A1 A2   PARAMS:  
+	ls11=1.4820u rs11=431.6m cp11=238.0829f rp11=10.7533k 
+	lwira1=1.3560n lwa1=26.4180n rwa1=179.3971m lwb1=17.3765n 
+	rwb1=3.9698 kw1a1=0.9999 
X1 A1 A2 SIMID_1210_BASE1  PARAMS:  ls11_a={ls11} 
+	rs11_a={rs11} cp11_a={cp11} rp11_a={rp11} 
+	lwira1_a={lwira1} lwa1_a={lwa1} rwa1_a={rwa1} 
+	lwb1_a={lwb1} rwb1_a={rwb1} kw1a1_a={kw1a1} 
.ENDS

*
* B82422A1153J100 SIMID 1210-100 High temperature (15 uH +-5%)
*
.subckt B82422A1153J100 A1 A2   PARAMS:  
+	ls11=15.2553u rs11=1.67 cp11=1.5854p rp11=34.9621k 
+	lwira1=1.3560n lwa1=32.3469n rwa1=123.4176m lwb1=34.5876n 
+	rwb1=1.1827 kw1a1=0.9999 
X1 A1 A2 SIMID_1210_BASE1  PARAMS:  ls11_a={ls11} 
+	rs11_a={rs11} cp11_a={cp11} rp11_a={rp11} 
+	lwira1_a={lwira1} lwa1_a={lwa1} rwa1_a={rwa1} 
+	lwb1_a={lwb1} rwb1_a={rwb1} kw1a1_a={kw1a1} 
.ENDS

*
* B82422A1153K000 SIMID 1210-A RF application (15 uH +-10%)
*
.subckt B82422A1153K000 A1 A2   PARAMS:  
+	ls11=14.4947u rs11=1.591 cp11=4.0030p rp11=24.4621k 
+	lwira1=5.8730n lwa1=58.0018n rwa1=114.8392m lwb1=151.3966n 
+	rwb1=1.9253 kw1a1=0.9999 
X1 A1 A2 SIMID_1210_BASE1  PARAMS:  ls11_a={ls11} 
+	rs11_a={rs11} cp11_a={cp11} rp11_a={rp11} 
+	lwira1_a={lwira1} lwa1_a={lwa1} rwa1_a={rwa1} 
+	lwb1_a={lwb1} rwb1_a={rwb1} kw1a1_a={kw1a1} 
.ENDS

*
* B82422A1182J100 SIMID 1210-100 High temperature (1.8 uH +-5%)
*
.subckt B82422A1182J100 A1 A2   PARAMS:  
+	ls11=1.7980u rs11=552m cp11=238.4205f rp11=13.0490k 
+	lwira1=1.3560n lwa1=29.5159n rwa1=256.1567m lwb1=17.3501n 
+	rwb1=4.8584 kw1a1=0.9999 
X1 A1 A2 SIMID_1210_BASE1  PARAMS:  ls11_a={ls11} 
+	rs11_a={rs11} cp11_a={cp11} rp11_a={rp11} 
+	lwira1_a={lwira1} lwa1_a={lwa1} rwa1_a={rwa1} 
+	lwb1_a={lwb1} rwb1_a={rwb1} kw1a1_a={kw1a1} 
.ENDS

*
* B82422A1182K000 SIMID 1210-A RF application (1.8 uH +-10%)
*
.subckt B82422A1182K000 A1 A2   PARAMS:  
+	ls11=1.9153u rs11=535.5m cp11=185.8359f rp11=11.1117k 
+	lwira1=5.8730n lwa1=61.2090n rwa1=259.3540m lwb1=55.8018n 
+	rwb1=20.3906 kw1a1=0.9999 
X1 A1 A2 SIMID_1210_BASE1  PARAMS:  ls11_a={ls11} 
+	rs11_a={rs11} cp11_a={cp11} rp11_a={rp11} 
+	lwira1_a={lwira1} lwa1_a={lwa1} rwa1_a={rwa1} 
+	lwb1_a={lwb1} rwb1_a={rwb1} kw1a1_a={kw1a1} 
.ENDS

*
* B82422A1183K000 SIMID 1210-A RF application (18 uH +-10%)
*
.subckt B82422A1183K000 A1 A2   PARAMS:  
+	ls11=19.2582u rs11=1.773 cp11=4.0169p rp11=25.7153k 
+	lwira1=5.8730n lwa1=62.2813n rwa1=122.6224m lwb1=159.2775n 
+	rwb1=1.7263 kw1a1=0.9999 
X1 A1 A2 SIMID_1210_BASE1  PARAMS:  ls11_a={ls11} 
+	rs11_a={rs11} cp11_a={cp11} rp11_a={rp11} 
+	lwira1_a={lwira1} lwa1_a={lwa1} rwa1_a={rwa1} 
+	lwb1_a={lwb1} rwb1_a={rwb1} kw1a1_a={kw1a1} 
.ENDS

*
* B82422A1183K100 SIMID 1210-100 High temperature (18 uH +-10%)
*
.subckt B82422A1183K100 A1 A2   PARAMS:  
+	ls11=17.4645u rs11=1.86 cp11=1.3336p rp11=44.4750k 
+	lwira1=1.3560n lwa1=30.5517n rwa1=106.5659m lwb1=32.1790n 
+	rwb1=1.1013 kw1a1=999.9990m 
X1 A1 A2 SIMID_1210_BASE1  PARAMS:  ls11_a={ls11} 
+	rs11_a={rs11} cp11_a={cp11} rp11_a={rp11} 
+	lwira1_a={lwira1} lwa1_a={lwa1} rwa1_a={rwa1} 
+	lwb1_a={lwb1} rwb1_a={rwb1} kw1a1_a={kw1a1} 
.ENDS

*
* B82422A1222J000 SIMID 1210-A RF application (2.2 uH +-5%)
*
.subckt B82422A1222J000 A1 A2   PARAMS:  
+	ls11=2.2954u rs11=639.2m cp11=203.3234f rp11=10.7130k 
+	lwira1=5.8730n lwa1=51.1936n rwa1=162.3514m lwb1=44.6564n 
+	rwb1=14.1465 kw1a1=0.9999 
X1 A1 A2 SIMID_1210_BASE1  PARAMS:  ls11_a={ls11} 
+	rs11_a={rs11} cp11_a={cp11} rp11_a={rp11} 
+	lwira1_a={lwira1} lwa1_a={lwa1} rwa1_a={rwa1} 
+	lwb1_a={lwb1} rwb1_a={rwb1} kw1a1_a={kw1a1} 
.ENDS

*
* B82422A1222J100 SIMID 1210-100 High temperature (2.2 uH +-5%)
*
.subckt B82422A1222J100 A1 A2   PARAMS:  
+	ls11=2.2647u rs11=601.9m cp11=381.1585f rp11=15.4726k 
+	lwira1=1.3560n lwa1=24.3653n rwa1=152.2190m lwb1=15.5350n 
+	rwb1=3.2478 kw1a1=999.9990m 
X1 A1 A2 SIMID_1210_BASE1  PARAMS:  ls11_a={ls11} 
+	rs11_a={rs11} cp11_a={cp11} rp11_a={rp11} 
+	lwira1_a={lwira1} lwa1_a={lwa1} rwa1_a={rwa1} 
+	lwb1_a={lwb1} rwb1_a={rwb1} kw1a1_a={kw1a1} 
.ENDS

*
* B82422A1223J100 SIMID 1210-100 High temperature (22 uH +-5%)
*
.subckt B82422A1223J100 A1 A2   PARAMS:  
+	ls11=22.5234u rs11=2.302 cp11=1.7803p rp11=43.7708k 
+	lwira1=1.3560n lwa1=31.5647n rwa1=95.5669m lwb1=39.0655n 
+	rwb1=962.2193m kw1a1=0.9999 
X1 A1 A2 SIMID_1210_BASE1  PARAMS:  ls11_a={ls11} 
+	rs11_a={rs11} cp11_a={cp11} rp11_a={rp11} 
+	lwira1_a={lwira1} lwa1_a={lwa1} rwa1_a={rwa1} 
+	lwb1_a={lwb1} rwb1_a={rwb1} kw1a1_a={kw1a1} 
.ENDS

*
* B82422A1223K000 SIMID 1210-A RF application (22 uH +-10%)
*
.subckt B82422A1223K000 A1 A2   PARAMS:  
+	ls11=21.4292u rs11=2.188 cp11=4.8806p rp11=30.1217k 
+	lwira1=5.8730n lwa1=65.5497n rwa1=129.0105m lwb1=161.3929n 
+	rwb1=1.6702 kw1a1=0.9999 
X1 A1 A2 SIMID_1210_BASE1  PARAMS:  ls11_a={ls11} 
+	rs11_a={rs11} cp11_a={cp11} rp11_a={rp11} 
+	lwira1_a={lwira1} lwa1_a={lwa1} rwa1_a={rwa1} 
+	lwb1_a={lwb1} rwb1_a={rwb1} kw1a1_a={kw1a1} 
.ENDS

*
* B82422A1272J000 SIMID 1210-A RF application (2.7 uH +-5%)
*
.subckt B82422A1272J000 A1 A2   PARAMS:  
+	ls11=2.8159u rs11=739.5m cp11=186.5714f rp11=12.6337k 
+	lwira1=5.8730n lwa1=41.8972n rwa1=126.3954m lwb1=42.6468n 
+	rwb1=12.5581 kw1a1=0.9999 
X1 A1 A2 SIMID_1210_BASE1  PARAMS:  ls11_a={ls11} 
+	rs11_a={rs11} cp11_a={cp11} rp11_a={rp11} 
+	lwira1_a={lwira1} lwa1_a={lwa1} rwa1_a={rwa1} 
+	lwb1_a={lwb1} rwb1_a={rwb1} kw1a1_a={kw1a1} 
.ENDS

*
* B82422A1272J100 SIMID 1210-100 High temperature (2.7 uH +-5%)
*
.subckt B82422A1272J100 A1 A2   PARAMS:  
+	ls11=2.7618u rs11=676.6m cp11=627.9145f rp11=17.6495k 
+	lwira1=1.3560n lwa1=31.8427n rwa1=326.8148m lwb1=17.6521n 
+	rwb1=3.9462 kw1a1=0.9999 
X1 A1 A2 SIMID_1210_BASE1  PARAMS:  ls11_a={ls11} 
+	rs11_a={rs11} cp11_a={cp11} rp11_a={rp11} 
+	lwira1_a={lwira1} lwa1_a={lwa1} rwa1_a={rwa1} 
+	lwb1_a={lwb1} rwb1_a={rwb1} kw1a1_a={kw1a1} 
.ENDS

*
* B82422A1273J100 SIMID 1210-100 High temperature (27 uH +-5%)
*
.subckt B82422A1273J100 A1 A2   PARAMS:  
+	ls11=26.9498u rs11=3.197 cp11=1.5479p rp11=52.4467k 
+	lwira1=1.3560n lwa1=29.5719n rwa1=78.9203m lwb1=46.1687n 
+	rwb1=1.0072 kw1a1=999.9990m 
X1 A1 A2 SIMID_1210_BASE1  PARAMS:  ls11_a={ls11} 
+	rs11_a={rs11} cp11_a={cp11} rp11_a={rp11} 
+	lwira1_a={lwira1} lwa1_a={lwa1} rwa1_a={rwa1} 
+	lwb1_a={lwb1} rwb1_a={rwb1} kw1a1_a={kw1a1} 
.ENDS

*
* B82422A1332J000 SIMID 1210-A RF application (3.3 uH +-5%)
*
.subckt B82422A1332J000 A1 A2   PARAMS:  
+	ls11=3.4353u rs11=1.0527 cp11=199.8122f rp11=18.6343k 
+	lwira1=5.8730n lwa1=51.4626n rwa1=179.6956m lwb1=40.1154n 
+	rwb1=20.8921 kw1a1=0.9999 
X1 A1 A2 SIMID_1210_BASE1  PARAMS:  ls11_a={ls11} 
+	rs11_a={rs11} cp11_a={cp11} rp11_a={rp11} 
+	lwira1_a={lwira1} lwa1_a={lwa1} rwa1_a={rwa1} 
+	lwb1_a={lwb1} rwb1_a={rwb1} kw1a1_a={kw1a1} 
.ENDS

*
* B82422A1332J100 SIMID 1210-100 High temperature (3.3 uH +-5%)
*
.subckt B82422A1332J100 A1 A2   PARAMS:  
+	ls11=2.9498u rs11=1.067 cp11=292.3710f rp11=18.7870k 
+	lwira1=1.3560n lwa1=36.9422n rwa1=357.3842m lwb1=15.9362n 
+	rwb1=4.7164 kw1a1=0.9999 
X1 A1 A2 SIMID_1210_BASE1  PARAMS:  ls11_a={ls11} 
+	rs11_a={rs11} cp11_a={cp11} rp11_a={rp11} 
+	lwira1_a={lwira1} lwa1_a={lwa1} rwa1_a={rwa1} 
+	lwb1_a={lwb1} rwb1_a={rwb1} kw1a1_a={kw1a1} 
.ENDS

*
* B82422A1333J100 SIMID 1210-100 High temperature (33 uH +-5%)
*
.subckt B82422A1333J100 A1 A2   PARAMS:  
+	ls11=34.0148u rs11=3.549 cp11=1.8900p rp11=53.2483k 
+	lwira1=1.3560n lwa1=30.0776n rwa1=70.6373m lwb1=49.5318n 
+	rwb1=861.8502m kw1a1=0.9999 
X1 A1 A2 SIMID_1210_BASE1  PARAMS:  ls11_a={ls11} 
+	rs11_a={rs11} cp11_a={cp11} rp11_a={rp11} 
+	lwira1_a={lwira1} lwa1_a={lwa1} rwa1_a={rwa1} 
+	lwb1_a={lwb1} rwb1_a={rwb1} kw1a1_a={kw1a1} 
.ENDS

*
* B82422A1333K000 SIMID 1210-A RF application (33 uH +-10%)
*
.subckt B82422A1333K000 A1 A2   PARAMS:  
+	ls11=31.8442u rs11=4.144 cp11=1.7729p rp11=53.7501k 
+	lwira1=5.8730n lwa1=61.6374n rwa1=139.6976m lwb1=238.2679n 
+	rwb1=2.6696 kw1a1=0.9999 
X1 A1 A2 SIMID_1210_BASE1  PARAMS:  ls11_a={ls11} 
+	rs11_a={rs11} cp11_a={cp11} rp11_a={rp11} 
+	lwira1_a={lwira1} lwa1_a={lwa1} rwa1_a={rwa1} 
+	lwb1_a={lwb1} rwb1_a={rwb1} kw1a1_a={kw1a1} 
.ENDS

*
* B82422A1393K100 SIMID 1210-100 High temperature (39 uH +-10%)
*
.subckt B82422A1393K100 A1 A2   PARAMS:  
+	ls11=38.8324u rs11=5.85 cp11=1.6322p rp11=69.2453k 
+	lwira1=1.3560n lwa1=31.5551n rwa1=92.7489m lwb1=83.7080n 
+	rwb1=1.3477 kw1a1=0.9999 
X1 A1 A2 SIMID_1210_BASE1  PARAMS:  ls11_a={ls11} 
+	rs11_a={rs11} cp11_a={cp11} rp11_a={rp11} 
+	lwira1_a={lwira1} lwa1_a={lwa1} rwa1_a={rwa1} 
+	lwb1_a={lwb1} rwb1_a={rwb1} kw1a1_a={kw1a1} 
.ENDS

*
* B82422A1472J100 SIMID 1210-100 High temperature (4.7 uH +-5%)
*
.subckt B82422A1472J100 A1 A2   PARAMS:  
+	ls11=4.7561u rs11=1.872 cp11=263.6817f rp11=31.1279k 
+	lwira1=1.3560n lwa1=25.8411n rwa1=129.9355m lwb1=15.9929n 
+	rwb1=3.9207 kw1a1=0.9999 
X1 A1 A2 SIMID_1210_BASE1  PARAMS:  ls11_a={ls11} 
+	rs11_a={rs11} cp11_a={cp11} rp11_a={rp11} 
+	lwira1_a={lwira1} lwa1_a={lwa1} rwa1_a={rwa1} 
+	lwb1_a={lwb1} rwb1_a={rwb1} kw1a1_a={kw1a1} 
.ENDS

*
* B82422A1472K000 SIMID 1210-A RF application (4.7 uH +-10%)
*
.subckt B82422A1472K000 A1 A2   PARAMS:  
+	ls11=4.9783u rs11=1.881 cp11=196.4811f rp11=26.0524k 
+	lwira1=5.8730n lwa1=69.7894n rwa1=322.1362m lwb1=29.5600n 
+	rwb1=17.7361 kw1a1=999.9990m 
X1 A1 A2 SIMID_1210_BASE1  PARAMS:  ls11_a={ls11} 
+	rs11_a={rs11} cp11_a={cp11} rp11_a={rp11} 
+	lwira1_a={lwira1} lwa1_a={lwa1} rwa1_a={rwa1} 
+	lwb1_a={lwb1} rwb1_a={rwb1} kw1a1_a={kw1a1} 
.ENDS

*
* B82422A1473J100 SIMID 1210-100 High temperature (47 uH +-5%)
*
.subckt B82422A1473J100 A1 A2   PARAMS:  
+	ls11=46.5199u rs11=6.353 cp11=1.4350p rp11=80.5439k 
+	lwira1=1.3560n lwa1=30.6202n rwa1=82.0526m lwb1=73.9050n 
+	rwb1=1.0744 kw1a1=0.9999 
X1 A1 A2 SIMID_1210_BASE1  PARAMS:  ls11_a={ls11} 
+	rs11_a={rs11} cp11_a={cp11} rp11_a={rp11} 
+	lwira1_a={lwira1} lwa1_a={lwa1} rwa1_a={rwa1} 
+	lwb1_a={lwb1} rwb1_a={rwb1} kw1a1_a={kw1a1} 
.ENDS

*
* B82422A1473K000 SIMID 1210-A RF application (47 uH +-10%)
*
.subckt B82422A1473K000 A1 A2   PARAMS:  
+	ls11=47.5578u rs11=6.1 cp11=4.4844p rp11=61.9298k 
+	lwira1=5.8730n lwa1=63.4945n rwa1=141.7633m lwb1=193.5376n 
+	rwb1=2.1354 kw1a1=0.9999 
X1 A1 A2 SIMID_1210_BASE1  PARAMS:  ls11_a={ls11} 
+	rs11_a={rs11} cp11_a={cp11} rp11_a={rp11} 
+	lwira1_a={lwira1} lwa1_a={lwa1} rwa1_a={rwa1} 
+	lwb1_a={lwb1} rwb1_a={rwb1} kw1a1_a={kw1a1} 
.ENDS

*
* B82422A1562J100 SIMID 1210-100 High temperature (5.6 uH +-5%)
*
.subckt B82422A1562J100 A1 A2   PARAMS:  
+	ls11=5.6601u rs11=2.075 cp11=282.5902f rp11=52.4106k 
+	lwira1=1.3560n lwa1=25.4725n rwa1=144.0636m lwb1=7.9864n 
+	rwb1=4.6031 kw1a1=0.9999 
X1 A1 A2 SIMID_1210_BASE1  PARAMS:  ls11_a={ls11} 
+	rs11_a={rs11} cp11_a={cp11} rp11_a={rp11} 
+	lwira1_a={lwira1} lwa1_a={lwa1} rwa1_a={rwa1} 
+	lwb1_a={lwb1} rwb1_a={rwb1} kw1a1_a={kw1a1} 
.ENDS

*
* B82422A1562K000 SIMID 1210-A RF application (5.6 uH +-10%)
*
.subckt B82422A1562K000 A1 A2   PARAMS:  
+	ls11=5.6595u rs11=2.055 cp11=191.0721f rp11=43.9789k 
+	lwira1=5.8730n lwa1=76.8230n rwa1=363.1524m lwb1=23.9566n 
+	rwb1=26.5382 kw1a1=0.9999 
X1 A1 A2 SIMID_1210_BASE1  PARAMS:  ls11_a={ls11} 
+	rs11_a={rs11} cp11_a={cp11} rp11_a={rp11} 
+	lwira1_a={lwira1} lwa1_a={lwa1} rwa1_a={rwa1} 
+	lwb1_a={lwb1} rwb1_a={rwb1} kw1a1_a={kw1a1} 
.ENDS

*
* B82422A1563J100 SIMID 1210-100 High temperature (56 uH +-5%)
*
.subckt B82422A1563J100 A1 A2   PARAMS:  
+	ls11=56.1140u rs11=5.798 cp11=1.5166p rp11=107.9224k 
+	lwira1=1.3560n lwa1=45.8725n rwa1=234.0278m lwb1=50.4591n 
+	rwb1=2.2470 kw1a1=0.9999 
X1 A1 A2 SIMID_1210_BASE1  PARAMS:  ls11_a={ls11} 
+	rs11_a={rs11} cp11_a={cp11} rp11_a={rp11} 
+	lwira1_a={lwira1} lwa1_a={lwa1} rwa1_a={rwa1} 
+	lwb1_a={lwb1} rwb1_a={rwb1} kw1a1_a={kw1a1} 
.ENDS

*
* B82422A1563K000 SIMID 1210-A RF application (56 uH +-10%)
*
.subckt B82422A1563K000 A1 A2   PARAMS:  
+	ls11=57.9274u rs11=5.495 cp11=5.3775p rp11=56.8835k 
+	lwira1=5.8730n lwa1=66.8723n rwa1=102.5238m lwb1=147.4002n 
+	rwb1=1.1616 kw1a1=999.9990m 
X1 A1 A2 SIMID_1210_BASE1  PARAMS:  ls11_a={ls11} 
+	rs11_a={rs11} cp11_a={cp11} rp11_a={rp11} 
+	lwira1_a={lwira1} lwa1_a={lwa1} rwa1_a={rwa1} 
+	lwb1_a={lwb1} rwb1_a={rwb1} kw1a1_a={kw1a1} 
.ENDS

*
* B82422A1682J000 SIMID 1210-A RF application (6.8 uH +-5%)
*
.subckt B82422A1682J000 A1 A2   PARAMS:  
+	ls11=7.2025u rs11=2.323 cp11=227.1312f rp11=39.9392k 
+	lwira1=5.8730n lwa1=56.4932n rwa1=218.8601m lwb1=38.3846n 
+	rwb1=16.0680 kw1a1=0.9999 
X1 A1 A2 SIMID_1210_BASE1  PARAMS:  ls11_a={ls11} 
+	rs11_a={rs11} cp11_a={cp11} rp11_a={rp11} 
+	lwira1_a={lwira1} lwa1_a={lwa1} rwa1_a={rwa1} 
+	lwb1_a={lwb1} rwb1_a={rwb1} kw1a1_a={kw1a1} 
.ENDS

*
* B82422A1682J100 SIMID 1210-100 High temperature (6.8 uH +-5%)
*
.subckt B82422A1682J100 A1 A2   PARAMS:  
+	ls11=6.9692u rs11=2.285 cp11=298.6774f rp11=68.4735k 
+	lwira1=1.3560n lwa1=25.2310n rwa1=136.6337m lwb1=6.6536n 
+	rwb1=4.9356 kw1a1=0.9999 
X1 A1 A2 SIMID_1210_BASE1  PARAMS:  ls11_a={ls11} 
+	rs11_a={rs11} cp11_a={cp11} rp11_a={rp11} 
+	lwira1_a={lwira1} lwa1_a={lwa1} rwa1_a={rwa1} 
+	lwb1_a={lwb1} rwb1_a={rwb1} kw1a1_a={kw1a1} 
.ENDS

*
* B82422A1683J100 SIMID 1210-100 High temperature (68 uH +-5%)
*
.subckt B82422A1683J100 A1 A2   PARAMS:  
+	ls11=66.8914u rs11=6.569 cp11=1.6572p rp11=89.7530k 
+	lwira1=1.3560n lwa1=30.5894n rwa1=74.9331m lwb1=63.0303n 
+	rwb1=865.9764m kw1a1=0.9999 
X1 A1 A2 SIMID_1210_BASE1  PARAMS:  ls11_a={ls11} 
+	rs11_a={rs11} cp11_a={cp11} rp11_a={rp11} 
+	lwira1_a={lwira1} lwa1_a={lwa1} rwa1_a={rwa1} 
+	lwb1_a={lwb1} rwb1_a={rwb1} kw1a1_a={kw1a1} 
.ENDS

*
* B82422A1683K000 SIMID 1210-A RF application (68 uH +-10%)
*
.subckt B82422A1683K000 A1 A2   PARAMS:  
+	ls11=66.4261u rs11=6.214 cp11=5.2913p rp11=64.9400k 
+	lwira1=5.8730n lwa1=60.6390n rwa1=100.6830m lwb1=146.6971n 
+	rwb1=1.1349 kw1a1=999.9990m 
X1 A1 A2 SIMID_1210_BASE1  PARAMS:  ls11_a={ls11} 
+	rs11_a={rs11} cp11_a={cp11} rp11_a={rp11} 
+	lwira1_a={lwira1} lwa1_a={lwa1} rwa1_a={rwa1} 
+	lwb1_a={lwb1} rwb1_a={rwb1} kw1a1_a={kw1a1} 
.ENDS

*
* B82422A1822J100 SIMID 1210-100 High temperature (8.2 uH +-5%)
*
.subckt B82422A1822J100 A1 A2   PARAMS:  
+	ls11=8.1889u rs11=2.49 cp11=306.3972f rp11=81.2112k 
+	lwira1=1.3560n lwa1=25.6106n rwa1=146.8936m lwb1=7.5000n 
+	rwb1=4.7526 kw1a1=0.9999 
X1 A1 A2 SIMID_1210_BASE1  PARAMS:  ls11_a={ls11} 
+	rs11_a={rs11} cp11_a={cp11} rp11_a={rp11} 
+	lwira1_a={lwira1} lwa1_a={lwa1} rwa1_a={rwa1} 
+	lwb1_a={lwb1} rwb1_a={rwb1} kw1a1_a={kw1a1} 
.ENDS

*
* B82422A1822K000 SIMID 1210-A RF application (8.2 uH +-10%)
*
.subckt B82422A1822K000 A1 A2   PARAMS:  
+	ls11=8.5921u rs11=2.581 cp11=274.7988f rp11=36.7359k 
+	lwira1=5.8730n lwa1=69.1225n rwa1=319.9017m lwb1=73.8861n 
+	rwb1=25.4427 kw1a1=0.9999 
X1 A1 A2 SIMID_1210_BASE1  PARAMS:  ls11_a={ls11} 
+	rs11_a={rs11} cp11_a={cp11} rp11_a={rp11} 
+	lwira1_a={lwira1} lwa1_a={lwa1} rwa1_a={rwa1} 
+	lwb1_a={lwb1} rwb1_a={rwb1} kw1a1_a={kw1a1} 
.ENDS

*
* B82422A1823J100 SIMID 1210-100 High temperature (82 uH +-5%)
*
.subckt B82422A1823J100 A1 A2   PARAMS:  
+	ls11=81.4049u rs11=8.675 cp11=1.4391p rp11=115.8821k 