*****
* TDKBeads.LIB
* TDK Ferrite Bead Library
* Spectrum Software
* Generated by the Micro-Cap Model program Version 10.0.4.0.
*****

*

*Chip Bead for Signal Line Z=10ohm Idc=500mA
.SUBCKT MMZ0402S100C  1 2 
L1 1 3 22.63309696n 
R1 1 3 10.7325746736 
C1 1 3 2.8735795083p 
R2 3 4 7.3710843361 
L2 3 4 2.757349279n 
C2 3 4 2.2044699273p 
RDC 4 2 .1 
.ENDS MMZ0402S100C 

*

*Chip Bead for Signal Line Z=120ohm Idc=210mA
.SUBCKT MMZ0402S121C  1 2 
L1 1 3 204.166758n 
R1 1 3 122.8812193268 
C1 1 3 1.5335788794p 
R2 3 4 184.6142886675 
L2 3 4 40.6887463n 
C2 3 4 363.7384932f 
RDC 4 2 .8 
.ENDS MMZ0402S121C 

*

*Chip Bead for Signal Line Z=70ohm Idc=260mA
.SUBCKT MMZ0402S700C  1 2 
L1 1 3 157.8982897n 
R1 1 3 78.225000796 
C1 1 3 753.2605935f 
R2 3 4 74.121254731 
L2 3 4 16.1790481n 
C2 3 4 398.3616064f 
RDC 4 2 .5 
.ENDS MMZ0402S700C 

*

*Chip Bead for Signal Line Z=33ohm Idc=100mA
.SUBCKT MMZ0603D330C  1 2 
L1 1 3 38.6914285135n 
R1 1 3 234.4263844662 
C1 1 3 501.9382492283f 
R2 3 4 237.5388441288 
L2 3 4 13.3939746613n 
C2 3 4 707.1046479451f 
RDC 4 2 .85 
.ENDS MMZ0603D330C 

*

*Chip Bead for Signal Line Z=56ohm Idc=100mA
.SUBCKT MMZ0603D560C  1 2 
L1 1 3 45.43138n 
R1 1 3 363.87277198 
C1 1 3 607.677084f 
R2 3 4 346.34037922 
L2 3 4 67.677429n 
C2 3 4 801.384579f 
RDC 4 2 1.05 
.ENDS MMZ0603D560C 

*

*Chip Bead for Signal Line Z=80ohm Idc=100mA
.SUBCKT MMZ0603D800C  1 2 
L1 1 3 59.6213021n 
R1 1 3 393.8743233278 
C1 1 3 790.0298424f 
R2 3 4 450.4810507748 
L2 3 4 90.8517061n 
C2 3 4 809.6075556f 
RDC 4 2 1.4 
.ENDS MMZ0603D800C 

*

*Chip Bead for Signal Line Z=10ohm Idc=200mA
.SUBCKT MMZ0603F100C  1 2 
L1 1 3 20.16453798u 
R1 1 3 1.6356573m 
C1 1 3 0 
R2 3 4 272.9694004873 
L2 3 4 16.64638777n 
C2 3 4 175.83653727f 
RDC 4 2 .6 
.ENDS MMZ0603F100C 

*

*Chip Bead for Signal Line Z=22ohm Idc=200mA
.SUBCKT MMZ0603F220C  1 2 
L1 1 3 17.331457699n 
R1 1 3 330.0900984584 
C1 1 3 613.362062407f 
R2 3 4 328.6728735065 
L2 3 4 19.6808579767n 
C2 3 4 717.1236018666f 
RDC 4 2 1 
.ENDS MMZ0603F220C 

*

*Chip Bead for Signal Line Z=33ohm Idc=150mA
.SUBCKT MMZ0603F330C  1 2 
L1 1 3 89.3855774104u 
R1 1 3 28.678131m 
C1 1 3 0.0059049f 
R2 3 4 1.020198014K 
L2 3 4 61.9541272n 
C2 3 4 450.1103240998f 
RDC 4 2 1.3 
.ENDS MMZ0603F330C 

*

*Chip Bead for Signal Line Z=10ohm Idc=500mA
.SUBCKT MMZ0603S100C  1 2 
L1 1 3 7.6939543n 
R1 1 3 10.251474388 
C1 1 3 3.0812775439p 
R2 3 4 6.561445081 
L2 3 4 32.535181n 
C2 3 4 0 
RDC 4 2 .12 
.ENDS MMZ0603S100C 

*

*Chip Bead for Signal Line Z=120ohm Idc=200mA
.SUBCKT MMZ0603S121C  1 2 
L1 1 3 330.245212n 
R1 1 3 109.23198106 
C1 1 3 758.472633f 
R2 3 4 143.1150055599 
L2 3 4 50.59345n 
C2 3 4 483.804414f 
RDC 4 2 0.45 
.ENDS MMZ0603S121C 

*

*Chip Bead for Signal Line Z=240ohm Idc=200mA
.SUBCKT MMZ0603S241C  1 2 
L1 1 3 565.032892n 
R1 1 3 199.4689736504 
C1 1 3 797.950803f 
R2 3 4 262.5983918493 
L2 3 4 129.008047n 
C2 3 4 580.44333f 
RDC 4 2 0.75 
.ENDS MMZ0603S241C 

*

*Chip Bead for Signal Line Z=470ohm Idc=100mA
.SUBCKT MMZ0603S471C  1 2 
L1 1 3 222.4255n 
R1 1 3 405.9887349999 
C1 1 3 795.1323f 
R2 3 4 405.28093 
L2 3 4 1.0326145u 
C2 3 4 812.5467f 
RDC 4 2 1.3 
.ENDS MMZ0603S471C 

*

*Chip Bead for Signal Line Z=600ohm Idc=100mA
.SUBCKT MMZ0603S601C  1 2 
L1 1 3 337.8274n 
R1 1 3 529.349455 
C1 1 3 625.8294f 
R2 3 4 503.54269 
L2 3 4 1.5370594u 
C2 3 4 737.5965f 
RDC 4 2 1.45 
.ENDS MMZ0603S601C 

*

*Chip Bead for Signal Line Z=80ohm Idc=200mA
.SUBCKT MMZ0603S800C  1 2 
L1 1 3 299.823996n 
R1 1 3 75.6460258 
C1 1 3 0 
R2 3 4 60.16666267 
L2 3 4 24.792823n 
C2 3 4 703.941363f 
RDC 4 2 0.37 
.ENDS MMZ0603S800C 

*

*Chip Bead for Signal Line Z=120ohm Idc=200mA
.SUBCKT MMZ0603Y121C  1 2 
L1 1 3 238.5341661n 
R1 1 3 135.4925677388 
C1 1 3 819.1448121f 
R2 3 4 147.2389464789 
L2 3 4 29.0778931n 
C2 3 4 472.5424101f 
RDC 4 2 .75 
.ENDS MMZ0603Y121C 

*

*Chip Bead for Signal Line Z=240ohm Idc=200mA
.SUBCKT MMZ0603Y241C  1 2 
L1 1 3 371.185533n 
R1 1 3 234.5199444401 
C1 1 3 1.117702551p 
R2 3 4 345.7923837402 
L2 3 4 111.838231n 
C2 3 4 604.713966f 
RDC 4 2 .8 
.ENDS MMZ0603Y241C 

*

*Chip Bead for Signal Line Z=470ohm Idc=200mA
.SUBCKT MMZ0603Y471C  1 2 
L1 1 3 682.45693n 
R1 1 3 464.2013829999 
C1 1 3 845.53113f 
R2 3 4 474.3872490999 
L2 3 4 185.141086n 
C2 3 4 732.476262f 
RDC 4 2 1.40 
.ENDS MMZ0603Y471C 

*

*Chip Bead for Signal Line Z=600ohm Idc=200mA
.SUBCKT MMZ0603Y601C  1 2 
L1 1 3 296.48649n 
R1 1 3 530.3551171 
C1 1 3 847.82739f 
R2 3 4 549.0013759001 
L2 3 4 737.72559n 
C2 3 4 1.11946929p 
RDC 4 2 1.5 
.ENDS MMZ0603Y601C 

*

*Chip Bead for Signal Line Z=1000ohm Idc=250mA
.SUBCKT MMZ1005A102E  1 2 
L1 1 3 318.8435955334n 
R1 1 3 1.1119818232K 
C1 1 3 190.8995943072f 
R2 3 4 1.2519504598K 
L2 3 4 1.7455549065u 
C2 3 4 111.330412974f 
RDC 4 2 1.25 
.ENDS MMZ1005A102E 

*

*Chip Bead for Signal Line Z=1500ohm Idc=230mA
.SUBCKT MMZ1005A152E  1 2 
L1 1 3 2.0899015u 
R1 1 3 1.6279231483K 
C1 1 3 166.91949f 
R2 3 4 1.630343863K 
L2 3 4 566.0196999999n 
C2 3 4 143.1603f 
RDC 4 2 1.7 
.ENDS MMZ1005A152E 

*

*Chip Bead for Signal Line Z=1800ohm Idc=200mA
.SUBCKT MMZ1005A182E  1 2 
L1 1 3 696.8601099999n 
R1 1 3 1.8448201819K 
C1 1 3 138.8268f 
R2 3 4 1.8464858821K 
L2 3 4 2.67800023u 
C2 3 4 153.2448f 
RDC 4 2 2.2 
.ENDS MMZ1005A182E 

*

*Chip Bead for Signal Line Z=2200ohm Idc=150mA
.SUBCKT MMZ1005A222E  1 2 
L1 1 3 3.2761998547u 
R1 1 3 2.5233463267K 
C1 1 3 114.1560522f 
R2 3 4 2.5297653285K 
L2 3 4 844.4700591998n 
C2 3 4 111.3706647f 
RDC 4 2 2.3 
.ENDS MMZ1005A222E 

*

*Chip Bead for Signal Line Z=600ohm Idc=300mA
.SUBCKT MMZ1005A601E  1 2 
L1 1 3 234.0405099999n 
R1 1 3 775.0469462491 
C1 1 3 236.905221f 
R2 3 4 732.5640662491 
L2 3 4 1.111222315u 
C2 3 4 166.920093f 
RDC 4 2 .85 
.ENDS MMZ1005A601E 

*

*Chip Bead for Signal Line Z=120ohm Idc=400mA
.SUBCKT MMZ1005B121C  1 2 
L1 1 3 61.2925911323n 
R1 1 3 70.3111029601 
C1 1 3 956.2672087631f 
R2 3 4 93.9012329791 
L2 3 4 1.0436865945u 
C2 3 4 777.0192710742f 
RDC 4 2 .25 
.ENDS MMZ1005B121C 

*

*Chip Bead for Signal Line Z=600ohm Idc=200mA
.SUBCKT MMZ1005B601C  1 2 
L1 1 3 5.66204716u 
R1 1 3 420.0222958 
C1 1 3 1.38428019p 
R2 3 4 411.3093361 
L2 3 4 519.83299n 
C2 3 4 705.39873f 
RDC 4 2 .85 
.ENDS MMZ1005B601C 

*

*Chip Bead for Signal Line Z=80ohm Idc=450mA
.SUBCKT MMZ1005B800C  1 2 
L1 1 3 45.4597092112n 
R1 1 3 43.13943082 
C1 1 3 747.2915699082f 
R2 3 4 62.2293355915 
L2 3 4 823.295677878n 
C2 3 4 950.7104248409f 
RDC 4 2 .2 
.ENDS MMZ1005B800C 

*

*Chip Bead for Signal Line Z=10ohm Idc=500mA
.SUBCKT MMZ1005D100C  1 2 
L1 1 3 13.903314589n 
R1 1 3 27.8327930051 
C1 1 3 1.6502401586p 
R2 3 4 47.8440118925 
L2 3 4 5.149940401n 
C2 3 4 420.1636909398f 
RDC 4 2 .1 
.ENDS MMZ1005D100C 

*

*Chip Bead for Signal Line Z=120ohm Idc=350mA
.SUBCKT MMZ1005D121C  1 2 
L1 1 3 83.5497829n 
R1 1 3 523.8092176669 
C1 1 3 729.9692199f 
R2 3 4 588.0408548156 
L2 3 4 130.579339n 
C2 3 4 851.7108081f 
RDC 4 2 .75 
.ENDS MMZ1005D121C 

*

*Chip Bead for Signal Line Z=120ohm Idc=300mA
.SUBCKT MMZ1005D121E  1 2 
L1 1 3 66.059427n 
R1 1 3 538.9227880301 
C1 1 3 271.38042f 
R2 3 4 539.2268671301 
L2 3 4 171.79471n 
C2 3 4 202.681287f 
RDC 4 2 .7 
.ENDS MMZ1005D121E 

*

*Chip Bead for Signal Line Z=22ohm Idc=400mA
.SUBCKT MMZ1005D220C  1 2 
L1 1 3 35.23984003n 
R1 1 3 88.7466575886 
C1 1 3 483.641738468f 
R2 3 4 91.1629517867 
L2 3 4 9.31378851n 
C2 3 4 592.6278902499f 
RDC 4 2 .2 
.ENDS MMZ1005D220C 

*

*Chip Bead for Signal Line Z=220ohm Idc=250mA
.SUBCKT MMZ1005D221E  1 2 
L1 1 3 328.07389n 
R1 1 3 915.6167611 
C1 1 3 121.9302f 
R2 3 4 901.4199811 
L2 3 4 134.34589n 
C2 3 4 183.84789f 
RDC 4 2 1 
.ENDS MMZ1005D221E 

*

*Chip Bead for Signal Line Z=240ohm Idc=200mA
.SUBCKT MMZ1005D241C  1 2 
L1 1 3 105.9072117998n 
R1 1 3 1.5018590377K 
C1 1 3 2.4524063607p 
R2 3 4 1.5027223539K 
L2 3 4 288.8119996n 
C2 3 4 710.8567805996f 
RDC 4 2 1.2 
.ENDS MMZ1005D241C 

*

*Chip Bead for Signal Line Z=33ohm Idc=400mA
.SUBCKT MMZ1005D330C  1 2 
L1 1 3 51.6615031n 
R1 1 3 142.514053969 
C1 1 3 692.6788629f 
R2 3 4 141.846880369 
L2 3 4 14.5808119n 
C2 3 4 626.6228229f 
RDC 4 2 .35 
.ENDS MMZ1005D330C 

*

*Chip Bead for Signal Line Z=68ohm Idc=400mA
.SUBCKT MMZ1005D680C  1 2 
L1 1 3 45.0436444n 
R1 1 3 325.1971106348 
C1 1 3 664.5473769f 
R2 3 4 331.6485514747 
L2 3 4 96.0476965n 
C2 3 4 820.5487617001f 
RDC 4 2 .55 
.ENDS MMZ1005D680C 

*

*Chip Bead for Signal Line Z=120ohm Idc=200mA
.SUBCKT MMZ1005F121E  1 2 
L1 1 3 93.12016n 
R1 1 3 1.2944349452K 
C1 1 3 168.141861f 
R2 3 4 1.2983408501K 
L2 3 4 160.636909n 
C2 3 4 110.97549f 
RDC 4 2 1.5 
.ENDS MMZ1005F121E 

*

*Chip Bead for Signal Line Z=33ohm Idc=200mA
.SUBCKT MMZ1005F330C  1 2 
L1 1 3 27.542044n 
R1 1 3 295.51051945 
C1 1 3 1.096691913p 
R2 3 4 312.8800987 
L2 3 4 28.142254n 
C2 3 4 1.064033622p 
RDC 4 2 .6 
.ENDS MMZ1005F330C 

*

*Chip Bead for Signal Line Z=47ohm Idc=100mA
.SUBCKT MMZ1005F470C  1 2 
L1 1 3 51.6775681n 
R1 1 3 498.6554141885 
C1 1 3 988.3827039f 
R2 3 4 517.517012899 
L2 3 4 35.3703241n 
C2 3 4 1.1563434561p 
RDC 4 2 .8 
.ENDS MMZ1005F470C 

*

*Chip Bead for Signal Line Z=47ohm Idc=300mA
.SUBCKT MMZ1005F470E  1 2 
L1 1 3 32.7008773n 
R1 1 3 544.8340739692 
C1 1 3 268.1269218f 
R2 3 4 546.4185841792 
L2 3 4 59.3757271n 
C2 3 4 221.3254863f 
RDC 4 2 .7 
.ENDS MMZ1005F470E 

*

*Chip Bead for Signal Line Z=56ohm Idc=100mA
.SUBCKT MMZ1005F560C  1 2 
L1 1 3 54.0873481n 
R1 1 3 629.3013170768 
C1 1 3 1.0688898783p 
R2 3 4 635.4073076768 
L2 3 4 47.1654202n 
C2 3 4 968.1492549f 
RDC 4 2 .8 
.ENDS MMZ1005F560C 

*

*Chip Bead for Signal Line Z=75ohm Idc=250mA
.SUBCKT MMZ1005F750E  1 2 
L1 1 3 85.3303819n 
R1 1 3 784.2510588834 
C1 1 3 184.9473279f 
R2 3 4 791.3820369834 
L2 3 4 59.4363019n 
C2 3 4 240.6524049f 
RDC 4 2 1 
.ENDS MMZ1005F750E 

*

*Chip Bead for Signal Line Z=1000ohm Idc=200mA
.SUBCKT MMZ1005S102C  1 2 
L1 1 3 1.6884276383u 
R1 1 3 1.0996561372K 
C1 1 3 641.5124524636f 
R2 3 4 415.7682390869 
L2 3 4 1.5283795446u 
C2 3 4 4.7559946586p 
RDC 4 2 1 
.ENDS MMZ1005S102C 

*

*Chip Bead for Signal Line Z=1000ohm Idc=250mA
.SUBCKT MMZ1005S102E  1 2 
L1 1 3 558.7532199982n 
R1 1 3 880.1108848033 
C1 1 3 140.90229f 
R2 3 4 789.8877913032 
L2 3 4 3.30534577u 
C2 3 4 326.3364f 
RDC 4 2 1.1 
.ENDS MMZ1005S102E 

*

*Chip Bead for Signal Line Z=120ohm Idc=500mA
.SUBCKT MMZ1005S121C  1 2 
L1 1 3 69.4925963151n 
R1 1 3 155.3225835715 
C1 1 3 660.2175598088f 
R2 3 4 115.0104052939 
L2 3 4 487.3979531588n 
C2 3 4 1.9056376332p 
RDC 4 2 .25 
.ENDS MMZ1005S121C 

*

*Chip Bead for Signal Line Z=1800ohm Idc=200mA
.SUBCKT MMZ1005S182E  1 2 
L1 1 3 1.2787875344u 
R1 1 3 1.5908809075K 
C1 1 3 99.3119610726f 
R2 3 4 1.3361830617K 
L2 3 4 6.8812197218u 
C2 3 4 240.544859055f 
RDC 4 2 1.65 
.ENDS MMZ1005S182E 

*

*Chip Bead for Signal Line Z=240ohm Idc=400mA
.SUBCKT MMZ1005S241C  1 2 
L1 1 3 138.753745n 
R1 1 3 249.5015609787 
C1 1 3 678.325626f 
R2 3 4 189.6078703004 
L2 3 4 784.959298n 
C2 3 4 1.610188566p 
RDC 4 2 .4 
.ENDS MMZ1005S241C 

*

*Chip Bead for Signal Line Z=600ohm Idc=300mA
.SUBCKT MMZ1005S601C  1 2 
L1 1 3 435.2197n 
R1 1 3 490.2753969999 
C1 1 3 522.1497f 
R2 3 4 499.4213769999 
L2 3 4 2.8098723u 
C2 3 4 920.76f 
RDC 4 2 .6 
.ENDS MMZ1005S601C 

*

*Chip Bead for Signal Line Z=600ohm Idc=300mA
.SUBCKT MMZ1005S601E  1 2 
L1 1 3 1.9059091453u 
R1 1 3 439.6712825771 
C1 1 3 392.3035617f 
R2 3 4 512.3820446231 
L2 3 4 355.1131828n 
C2 3 4 190.6172802f 
RDC 4 2 .7 
.ENDS MMZ1005S601E 

*

*Chip Bead for Signal Line Z=80ohm Idc=500mA
.SUBCKT MMZ1005S800C  1 2 
L1 1 3 286.1665158n 
R1 1 3 67.767172171 
C1 1 3 1.1489564349p 
R2 3 4 79.399861231 
L2 3 4 38.3062069n 
C2 3 4 770.6741943001f 
RDC 4 2 .2 
.ENDS MMZ1005S800C 

*

*Chip Bead for Signal Line Z=1000ohm Idc=200mA
.SUBCKT MMZ1005Y102C  1 2 
L1 1 3 1.2464692u 
R1 1 3 700.6099120001 
C1 1 3 1.1058954p 
R2 3 4 702.6159880001 
L2 3 4 485.2393n 
C2 3 4 829.7361f 
RDC 4 2 .74 
.ENDS MMZ1005Y102C 

*

*Chip Bead for Signal Line Z=120ohm Idc=400mA
.SUBCKT MMZ1005Y121C  1 2 
L1 1 3 209.7533685n 
R1 1 3 108.902517226 
C1 1 3 2.2285864095p 
R2 3 4 169.8851335869 
L2 3 4 57.9643696n 
C2 3 4 476.3896233f 
RDC 4 2 .21 
.ENDS MMZ1005Y121C 

*

*Chip Bead for Signal Line Z=1500ohm Idc=100mA
.SUBCKT MMZ1005Y152C  1 2 
L1 1 3 1.3723776361u 
R1 1 3 1.1715262557K 
C1 1 3 730.1613640652f 
R2 3 4 681.5902984331 
L2 3 4 1.2949983354u 
C2 3 4 1.9129241973p 
RDC 4 2 1.15 
.ENDS MMZ1005Y152C 

*

*Chip Bead for Signal Line Z=240ohm Idc=300mA
.SUBCKT MMZ1005Y241C  1 2 
L1 1 3 439.17928n 
R1 1 3 217.2214015 
C1 1 3 1.04952477p 
R2 3 4 266.6246647 
L2 3 4 116.57397n 
C2 3 4 595.51062f 
RDC 4 2 .33 
.ENDS MMZ1005Y241C 

*

*Chip Bead for Signal Line Z=300ohm Idc=250mA
.SUBCKT MMZ1005Y301C  1 2 
L1 1 3 518.642518n 
R1 1 3 282.5638548699 
C1 1 3 935.922747f 
R2 3 4 291.9825586299 
L2 3 4 121.70398n 
C2 3 4 737.099886f 
RDC 4 2 .38 
.ENDS MMZ1005Y301C 

*

*Chip Bead for Signal Line Z=40ohm Idc=550mA
.SUBCKT MMZ1005Y400C  1 2 
L1 1 3 10.8438769n 
R1 1 3 30.491685271 
C1 1 3 1.0619737624p 
R2 3 4 45.965785627 
L2 3 4 82.6870222n 
C2 3 4 449.3046556f 
RDC 4 2 .12 
.ENDS MMZ1005Y400C 

*

*Chip Bead for Signal Line Z=470ohm Idc=250mA
.SUBCKT MMZ1005Y471C  1 2 
L1 1 3 363.978079n 
R1 1 3 608.9810943133 
C1 1 3 481.890381f 
R2 3 4 306.7589865076 
L2 3 4 502.8023590001n 
C2 3 4 2.356219986p 
RDC 4 2 .5 
.ENDS MMZ1005Y471C 

*

*Chip Bead for Signal Line Z=600ohm Idc=250mA
.SUBCKT MMZ1005Y601C  1 2 
L1 1 3 389.3358117999n 
R1 1 3 714.2535115741 
C1 1 3 531.7753479f 
R2 3 4 458.7026239727 
L2 3 4 624.3729447996n 
C2 3 4 1.6722186297p 
RDC 4 2 .56 
.ENDS MMZ1005Y601C 

*

*Chip Bead for Signal Line Z=80ohm Idc=450mA
.SUBCKT MMZ1005Y800C  1 2 
L1 1 3 173.549981n 
R1 1 3 84.78767524 
C1 1 3 1.259838138p 
R2 3 4 83.03161024 
L2 3 4 22.96792n 
C2 3 4 662.244051f 
RDC 4 2 .17 
.ENDS MMZ1005Y800C 

*

*Chip Bead for Signal Line Z=1800ohm Idc=200mA
.SUBCKT MMZ1608A182B  1 2 
L1 1 3 1.1150789042u 
R1 1 3 1.0100577034K 
C1 1 3 872.5833299045f 
R2 3 4 1.1584707323K 
L2 3 4 1.5124475712u 
C2 3 4 1.6286377334p 
RDC 4 2 .8 
.ENDS MMZ1608A182B 

*

*Chip Bead for Signal Line Z=2200ohm Idc=200mA
.SUBCKT MMZ1608A222B  1 2 
L1 1 3 1.6620754u 
R1 1 3 1.2753682354K 
C1 1 3 991.01571f 
R2 3 4 1.2479018563K 
L2 3 4 1.51866799u 
C2 3 4 2.0270172p 
RDC 4 2 .8 
.ENDS MMZ1608A222B 

*

*Chip Bead for Signal Line Z=2500ohm Idc=200mA
.SUBCKT MMZ1608A252B  1 2 
L1 1 3 1.8773388745u 
R1 1 3 1.7199016782K 
C1 1 3 983.8627545951f 
R2 3 4 1.1596713999K 
L2 3 4 1.5279567823u 
C2 3 4 842.5630186899f 
RDC 4 2 .8 
.ENDS MMZ1608A252B 

*

*Chip Bead for Signal Line Z=1000ohm Idc=300mA
.SUBCKT MMZ1608B102C  1 2 
L1 1 3 920.9113299998n 
R1 1 3 521.0658595029 
C1 1 3 826.6224300001f 
R2 3 4 820.1997063999 
L2 3 4 13.55880484u 
C2 3 4 814.98867f 
RDC 4 2 .6 
.ENDS MMZ1608B102C 

*

*Chip Bead for Signal Line Z=120ohm Idc=600mA
.SUBCKT MMZ1608B121C  1 2 
L1 1 3 72.183883n 
R1 1 3 38.77160644 
C1 1 3 1.37339445p 
R2 3 4 108.8883820302 
L2 3 4 2.222621644u 
C2 3 4 460.440885f 
RDC 4 2 .15 
.ENDS MMZ1608B121C 

*

*Chip Bead for Signal Line Z=220ohm Idc=500mA
.SUBCKT MMZ1608B221C  1 2 
L1 1 3 204.2855860001n 
R1 1 3 85.2846778301 
C1 1 3 1.109401854p 
R2 3 4 161.7003915701 
L2 3 4 4.142899543u 
C2 3 4 621.6665819999f 
RDC 4 2 .25 
.ENDS MMZ1608B221C 

*

*Chip Bead for Signal Line Z=300ohm Idc=500mA
.SUBCKT MMZ1608B301C  1 2 
L1 1 3 5.4156880819u 
R1 1 3 203.7312291426 
C1 1 3 516.3675887998f 
R2 3 4 124.8642000617 
L2 3 4 292.8753396997n 
C2 3 4 801.6845208004f 
RDC 4 2 .25 
.ENDS MMZ1608B301C 

*

*Chip Bead for Signal Line Z=470ohm Idc=500mA
.SUBCKT MMZ1608B471A  1 2 
L1 1 3 9.3262404583u 
R1 1 3 291.1202617895 
C1 1 3 873.3648293999f 
R2 3 4 220.2530350228 
L2 3 4 478.7401690001n 
C2 3 4 847.4219223001f 
RDC 4 2 .3 
.ENDS MMZ1608B471A 

*

*Chip Bead for Signal Line Z=600ohm Idc=500mA
.SUBCKT MMZ1608B601C  1 2 
L1 1 3 10.7415013u 
R1 1 3 434.3947989991 
C1 1 3 685.4435999999f 
R2 3 4 210.4128070008 
L2 3 4 611.7592899984n 
C2 3 4 1.31260677p 
RDC 4 2 .4 
.ENDS MMZ1608B601C 

*

*Chip Bead for Signal Line Z=5ohm Idc=700mA
.SUBCKT MMZ1608D050C  1 2 
L1 1 3 1.1516175274n 
R1 1 3 14.6350613495 
C1 1 3 3.0245997463p 
R2 3 4 16.322487809 
L2 3 4 6.8871922768n 
C2 3 4 3.5652681666p 
RDC 4 2 .05 
.ENDS MMZ1608D050C 

*

*Chip Bead for Signal Line Z=10ohm Idc=500mA
.SUBCKT MMZ1608D100C  1 2 
L1 1 3 2.451169279n 
R1 1 3 31.5267375125 
C1 1 3 1.2691461997p 
R2 3 4 43.2054479738 
L2 3 4 16.1851276n 
C2 3 4 901.3583965578f 
RDC 4 2 .1 
.ENDS MMZ1608D100C 

*

*Chip Bead for Signal Line Z=120ohm Idc=400mA
.SUBCKT MMZ1608D121B  1 2 
L1 1 3 118.8283879n 
R1 1 3 451.5886857925 
C1 1 3 1.5906498291p 
R2 3 4 450.8757031105 
L2 3 4 102.4664779n 
C2 3 4 928.6146279f 
RDC 4 2 .3 
.ENDS MMZ1608D121B 

*

*Chip Bead for Signal Line Z=120ohm Idc=400mA
.SUBCKT MMZ1608D121C  1 2 
L1 1 3 105.42716456n 
R1 1 3 387.6744393871 
C1 1 3 843.74531694f 
R2 3 4 465.3239243286 
L2 3 4 79.16820859n 
C2 3 4 477.25518108f 
RDC 4 2 .3 
.ENDS MMZ1608D121C 

*

*Chip Bead for Signal Line Z=22ohm Idc=500mA
.SUBCKT MMZ1608D220C  1 2 
L1 1 3 20.39918016n 
R1 1 3 42.6170239922 
C1 1 3 985.9035879906f 
R2 3 4 102.5453555117 
L2 3 4 16.09125509n 
C2 3 4 371.6185874698f 
RDC 4 2 .2 
.ENDS MMZ1608D220C 

*

*Chip Bead for Signal Line Z=240ohm Idc=300mA
.SUBCKT MMZ1608D241C  1 2 
L1 1 3 142.8253798n 
R1 1 3 572.4276705118 
C1 1 3 770.8565154f 
R2 3 4 593.0074265608 
L2 3 4 186.5446093n 
C2 3 4 1.1082403191p 
RDC 4 2 .6 
.ENDS MMZ1608D241C 

*

*Chip Bead for Signal Line Z=300ohm Idc=300mA
.SUBCKT MMZ1608D301B  1 2 
L1 1 3 301.47448981n 
R1 1 3 1.4229123221K 
C1 1 3 843.27457227f 
R2 3 4 1.4501423156K 
L2 3 4 177.85516207n 
C2 3 4 1.8583282949p 
RDC 4 2 .7 
.ENDS MMZ1608D301B 

*

*Chip Bead for Signal Line Z=50ohm Idc=500mA
.SUBCKT MMZ1608D500C  1 2 
L1 1 3 61.9473529n 
R1 1 3 215.1516635284 
C1 1 3 394.5004471f 
R2 3 4 215.4204661684 
L2 3 4 22.1256631n 
C2 3 4 307.5235831f 
RDC 4 2 .25 
.ENDS MMZ1608D500C 

*

*Chip Bead for Signal Line Z=80ohm Idc=500mA
.SUBCKT MMZ1608D800B  1 2 
L1 1 3 54.03510307n 
R1 1 3 293.1139222454 
C1 1 3 1.0092425865p 
R2 3 4 294.664009898 
L2 3 4 75.00987757n 
C2 3 4 1.5185899833p 
RDC 4 2 .3 
.ENDS MMZ1608D800B 

*

*Chip Bead for Signal Line Z=80ohm Idc=500mA
.SUBCKT MMZ1608D800C  1 2 
L1 1 3 95.7450349n 
R1 1 3 329.3681070984 
C1 1 3 1.0281198711p 
R2 3 4 336.7206786627 
L2 3 4 47.3505103n 
C2 3 4 762.4485669f 
RDC 4 2 .3 
.ENDS MMZ1608D800C 

*

*Chip Bead for Signal Line Z=3ohm Idc=700mA
.SUBCKT MMZ1608F030B  1 2 
L1 1 3 4.1751685n 
R1 1 3 32.162698762 
C1 1 3 209.6665722001f 
R2 3 4 1.417176m 
L2 3 4 3.2184984835u 
C2 3 4 529.5855492f 
RDC 4 2 .05 
.ENDS MMZ1608F030B 

*

*Chip Bead for Signal Line Z=120ohm Idc=200mA
.SUBCKT MMZ1608F121B  1 2 
L1 1 3 106.32242317n 
R1 1 3 2.7816172486K 
C1 1 3 1.4106923686p 
R2 3 4 2.777513665K 
L2 3 4 77.91359935n 
C2 3 4 1.9726830662p 
RDC 4 2 .75 
.ENDS MMZ1608F121B 

*

*Chip Bead for Signal Line Z=47ohm Idc=500mA
.SUBCKT MMZ1608F470B  1 2 
L1 1 3 45.5448532n 
R1 1 3 519.6044391098 
C1 1 3 1.6047904071p 
R2 3 4 517.5961208109 
L2 3 4 38.6667949n 
C2 3 4 1.3358228844p 
RDC 4 2 .4 
.ENDS MMZ1608F470B 

*

*Chip Bead for Signal Line Z=75ohm Idc=300mA
.SUBCKT MMZ1608F750B  1 2 
L1 1 3 78.09774319n 
R1 1 3 936.1316570582 
C1 1 3 1.347722049p 
R2 3 4 906.8285828372 
L2 3 4 72.16902919n 
C2 3 4 1.4248426755p 
RDC 4 2 .55 
.ENDS MMZ1608F750B 

*

*Chip Bead for Signal Line Z=1000ohm Idc=200mA
.SUBCKT MMZ1608Q102B  1 2 
L1 1 3 611.706883n 
R1 1 3 1.0463754697K 
C1 1 3 1.755343203p 
R2 3 4 1.0513476916K 
L2 3 4 547.266127n 
C2 3 4 1.19458041p 
RDC 4 2 1 
.ENDS MMZ1608Q102B 

*

*Chip Bead for Signal Line Z=120ohm Idc=500mA
.SUBCKT MMZ1608Q121B  1 2 
L1 1 3 113.27884003n 
R1 1 3 174.8561945136 
C1 1 3 2.4635693286p 
R2 3 4 232.6368324462 
L2 3 4 71.67658827n 
C2 3 4 1.1082972228p 
RDC 4 2 .3 
.ENDS MMZ1608Q121B 

*

*Chip Bead for Signal Line Z=220ohm Idc=500mA
.SUBCKT MMZ1608Q221B  1 2 
L1 1 3 218.5264639n 
R1 1 3 327.4890535808 
C1 1 3 1.5513128181p 
R2 3 4 327.8483573588 
L2 3 4 115.1384179n 
C2 3 4 973.6924119f 
RDC 4 2 .4 
.ENDS MMZ1608Q221B 

*

*Chip Bead for Signal Line Z=330ohm Idc=400mA
.SUBCKT MMZ1608Q331B  1 2 
L1 1 3 308.74693n 
R1 1 3 429.4676461005 
C1 1 3 1.41415614p 
R2 3 4 437.0871361005 
L2 3 4 182.21188n 
C2 3 4 936.86346f 
RDC 4 2 .5 
.ENDS MMZ1608Q331B 

*

*Chip Bead for Signal Line Z=470ohm Idc=300mA
.SUBCKT MMZ1608Q471B  1 2 
L1 1 3 263.873497n 
R1 1 3 545.8195615301 
C1 1 3 1.196745717p 
R2 3 4 627.9596932301 
L2 3 4 388.835257n 
C2 3 4 1.520775777p 
RDC 4 2 .7 
.ENDS MMZ1608Q471B 

*

*Chip Bead for Signal Line Z=600ohm Idc=200mA
.SUBCKT MMZ1608Q601B  1 2 
L1 1 3 372.09814n 
R1 1 3 705.6474826007 
C1 1 3 1.8228408p 
R2 3 4 709.9007053007 
L2 3 4 404.78965n 
C2 3 4 923.46126f 
RDC 4 2 .8 
.ENDS MMZ1608Q601B 

*

*Chip Bead for Signal Line Z=1000ohm Idc=400mA
.SUBCKT MMZ1608R102A  1 2 
L1 1 3 9.28645615u 
R1 1 3 590.1774148001 
C1 1 3 2.63103375p 
R2 3 4 648.4793341001 
L2 3 4 1.94358214u 
C2 3 4 1.25954172p 
RDC 4 2 .5 
.ENDS MMZ1608R102A 

*

*Chip Bead for Signal Line Z=120ohm Idc=500mA
.SUBCKT MMZ1608R121A  1 2 
L1 1 3 1.018177648u 
R1 1 3 77.75405191 
C1 1 3 2.296542105p 
R2 3 4 57.83538505 
L2 3 4 97.570243n 
C2 3 4 2.782386285p 
RDC 4 2 .18 
.ENDS MMZ1608R121A 

*

*Chip Bead for Signal Line Z=15ohm Idc=1500mA
.SUBCKT MMZ1608R150A  1 2 
L1 1 3 8.9610737201n 
R1 1 3 6.8303587848 
C1 1 3 7.6006153833p 
R2 3 4 11.4301916197 
L2 3 4 154.5392934373n 
C2 3 4 4.7169482418p 
RDC 4 2 .05 
.ENDS MMZ1608R150A 

*

*Chip Bead for Signal Line Z=30ohm Idc=1500mA
.SUBCKT MMZ1608R300A  1 2 
L1 1 3 19.8412443845n 
R1 1 3 13.5613184309 
C1 1 3 3.5457815867p 
R2 3 4 22.2824726625 
L2 3 4 281.6653326745n 
C2 3 4 2.4830435472p 
RDC 4 2 .05 
.ENDS MMZ1608R300A 

*

*Chip Bead for Signal Line Z=300ohm Idc=500mA
.SUBCKT MMZ1608R301A  1 2 
L1 1 3 2.5866085u 
R1 1 3 199.759147 
C1 1 3 1.3879572p 
R2 3 4 131.883406 
L2 3 4 224.527n 
C2 3 4 1.7830005p 
RDC 4 2 .25 
.ENDS MMZ1608R301A 

*

*Chip Bead for Signal Line Z=470ohm Idc=500mA
.SUBCKT MMZ1608R471A  1 2 
L1 1 3 4.77427135u 
R1 1 3 337.6845978999 
C1 1 3 1.71321873p 
R2 3 4 277.3267369 
L2 3 4 443.82625n 
C2 3 4 1.19406672p 
RDC 4 2 .3 
.ENDS MMZ1608R471A 

*

*Chip Bead for Signal Line Z=60ohm Idc=800mA
.SUBCKT MMZ1608R600A  1 2 
L1 1 3 586.0113979n 
R1 1 3 50.970398989 
C1 1 3 1.3277817633p 
R2 3 4 35.857508533 
L2 3 4 46.863244n 
C2 3 4 1.8391960079p 
RDC 4 2 .1 
.ENDS MMZ1608R600A 

*

*Chip Bead for Signal Line Z=600ohm Idc=500mA
.SUBCKT MMZ1608R601A  1 2 
L1 1 3 780.0468730651n 
R1 1 3 405.2213881735 
C1 1 3 1.0084423153p 
R2 3 4 361.2784685489 
L2 3 4 5.1087837879u 
C2 3 4 2.631875455p 
RDC 4 2 .4 
.ENDS MMZ1608R601A 

*

*Chip Bead for Signal Line Z=1000ohm Idc=400mA
.SUBCKT MMZ1608S102A  1 2 
L1 1 3 1.32949366u 
R1 1 3 859.8813313009 
C1 1 3 818.0109f 
R2 3 4 490.1890191998 
L2 3 4 4.3301545u 
C2 3 4 2.13840864p 
RDC 4 2 .5 
.ENDS MMZ1608S102A 

*

*Chip Bead for Signal Line Z=120ohm Idc=500mA
.SUBCKT MMZ1608S121A  1 2 
L1 1 3 68.9503105n 
R1 1 3 83.230683139 
C1 1 3 2.1875169531p 
R2 3 4 92.461347811 
L2 3 4 586.0708342n 
C2 3 4 2.4473537625p 
RDC 4 2 .15 
.ENDS MMZ1608S121A 

*

*Chip Bead for Signal Line Z=180ohm Idc=500mA
.SUBCKT MMZ1608S181A  1 2 
L1 1 3 122.50001n 
R1 1 3 130.5888961 
C1 1 3 1.45354041p 
R2 3 4 132.6595996 
L2 3 4 828.27718n 
C2 3 4 1.88802741p 
RDC 4 2 .2 
.ENDS MMZ1608S181A 

*

*Chip Bead for Signal Line Z=2000ohm Idc=200mA
.SUBCKT MMZ1608S202A  1 2 
L1 1 3 14.97874129u 
R1 1 3 1.5262492669K 
C1 1 3 1.67322219p 
R2 3 4 1.5379185481K 
L2 3 4 4.38787849u 
C2 3 4 1.0724668p 
RDC 4 2 .9 
.ENDS MMZ1608S202A 

*

*Chip Bead for Signal Line Z=220ohm Idc=500mA
.SUBCKT MMZ1608S221A  1 2 
L1 1 3 1.4188231u 
R1 1 3 167.5641976 
C1 1 3 1.11292626p 
R2 3 4 118.9473667 
L2 3 4 138.49753n 
C2 3 4 1.34208765p 
RDC 4 2 .2 
.ENDS MMZ1608S221A 

*

*Chip Bead for Signal Line Z=300ohm Idc=500mA
.SUBCKT MMZ1608S301A  1 2 
L1 1 3 1.843864807u 
R1 1 3 214.28009737 
C1 1 3 1.836322347p 
R2 3 4 213.02213497 
L2 3 4 276.025927n 
C2 3 4 1.275465123p 
RDC 4 2 .3 
.ENDS MMZ1608S301A 

*

*Chip Bead for Signal Line Z=40ohm Idc=600mA
.SUBCKT MMZ1608S400A  1 2 
L1 1 3 276.9581550791n 
R1 1 3 33.8318146084 
C1 1 3 399.9436432692f 
R2 3 4 19.088840027 
L2 3 4 17.7441599064n 
C2 3 4 3.2197024809p 
RDC 4 2 .1 
.ENDS MMZ1608S400A 

*

*Chip Bead for Signal Line Z=470ohm Idc=500mA
.SUBCKT MMZ1608S471A  1 2 
L1 1 3 2.9343781u 
R1 1 3 289.3780531001 
C1 1 3 1.44464271p 
R2 3 4 263.5162669 
L2 3 4 381.46429n 
C2 3 4 1.05535989p 
RDC 4 2 .3 
.ENDS MMZ1608S471A 

*

*Chip Bead for Signal Line Z=600ohm Idc=500mA
.SUBCKT MMZ1608S601A  1 2 
L1 1 3 2.90523616u 
R1 1 3 356.8211028999 
C1 1 3 1.58995899p 
R2 3 4 372.7773325001 
L2 3 4 572.76259n 
C2 3 4 1.19045673p 
RDC 4 2 .35 
.ENDS MMZ1608S601A 

*

*Chip Bead for Signal Line Z=80ohm Idc=500mA
.SUBCKT MMZ1608S800A  1 2 
L1 1 3 56.8n 
R1 1 3 51.2864728 
C1 1 3 1.22701056p 
R2 3 4 61.5056551 
L2 3 4 484.041n 
C2 3 4 1.08328102p 
RDC 4 2 .15 
.ENDS MMZ1608S800A 

*

*Chip Bead for Signal Line Z=1000ohm Idc=400mA
.SUBCKT MMZ1608Y102B  1 2 
L1 1 3 727.0059099999n 
R1 1 3 739.6173379 
C1 1 3 1.19352744p 
R2 3 4 688.0363159 
L2 3 4 2.08570036u 
C2 3 4 1.43513202p 
RDC 4 2 .5 
.ENDS MMZ1608Y102B 

*

*Chip Bead for Signal Line Z=120ohm Idc=500mA
.SUBCKT MMZ1608Y121B  1 2 
L1 1 3 294.237903n 
R1 1 3 89.78403163 
C1 1 3 3.131167737p 
R2 3 4 147.73604563 
L2 3 4 77.614273n 
C2 3 4 1.222222063p 
RDC 4 2 .2 
.ENDS MMZ1608Y121B 

*

*Chip Bead for Signal Line Z=15ohm Idc=1500mA
.SUBCKT MMZ1608Y150B  1 2 
L1 1 3 2.873300115n 
R1 1 3 15.3993183803 
C1 1 3 0.0000000369f 
R2 3 4 14.6603508143 
L2 3 4 29.3197939387n 
C2 3 4 3.8591046707p 
RDC 4 2 .05 
.ENDS MMZ1608Y150B 

*

*Chip Bead for Signal Line Z=1500ohm Idc=300mA
.SUBCKT MMZ1608Y152B  1 2 
L1 1 3 2.44587541u 
R1 1 3 899.7445054 
C1 1 3 1.18192686p 
R2 3 4 900.1984051 
L2 3 4 1.01463334u 
C2 3 4 1.04936418p 
RDC 4 2 .6 
.ENDS MMZ1608Y152B 

*

*Chip Bead for Signal Line Z=220ohm Idc=500mA
.SUBCKT MMZ1608Y221B  1 2 
L1 1 3 131.0960075n 
R1 1 3 276.7248763074 
C1 1 3 721.2551022001f 
R2 3 4 182.2928418137 
L2 3 4 354.6017668n 
C2 3 4 2.9215332561p 
RDC 4 2 .3 
.ENDS MMZ1608Y221B 

*

*Chip Bead for Signal Line Z=30ohm Idc=1500mA
.SUBCKT MMZ1608Y300B  1 2 
L1 1 3 70.65364807n 
R1 1 3 33.6934512578 
C1 1 3 772.1898747257f 
R2 3 4 18.3516680142 
L2 3 4 5.21856297n 
C2 3 4 2.0791914754p 
RDC 4 2 .05 
.ENDS MMZ1608Y300B 

*

*Chip Bead for Signal Line Z=300ohm Idc=500mA
.SUBCKT MMZ1608Y301B  1 2 
L1 1 3 265.16689n 
R1 1 3 405.0733963033 
C1 1 3 739.9320300001f 
R2 3 4 202.4114880989 
L2 3 4 627.92971n 
C2 3 4 3.46677084p 
RDC 4 2 .3 
.ENDS MMZ1608Y301B 

*

*Chip Bead for Signal Line Z=470ohm Idc=500mA
.SUBCKT MMZ1608Y471B  1 2 
L1 1 3 240.19648n 
R1 1 3 378.0419287001 
C1 1 3 1.08583002p 
R2 3 4 380.9486245001 
L2 3 4 745.35226n 
C2 3 4 1.65383532p 
RDC 4 2 .35 
.ENDS MMZ1608Y471B 

*

*Chip Bead for Signal Line Z=60ohm Idc=500mA
.SUBCKT MMZ1608Y600B  1 2 
L1 1 3 8.7391945n 
R1 1 3 45.281200834 
C1 1 3 792.234189f 
R2 3 4 72.898922818 
L2 3 4 125.0460865n 
C2 3 4 493.8955299f 
RDC 4 2 .15 
.ENDS MMZ1608Y600B 

*

*Chip Bead for Signal Line Z=600ohm Idc=500mA
.SUBCKT MMZ1608Y601B  1 2 
L1 1 3 1.263247033u 
R1 1 3 462.10672507 
C1 1 3 1.240401393p 
R2 3 4 458.49735427 
L2 3 4 306.866407n 
C2 3 4 1.296926433p 
RDC 4 2 .4 
.ENDS MMZ1608Y601B 

*

*Chip Bead for Signal Line Z=750ohm Idc=500mA
.SUBCKT MMZ1608Y751B  1 2 
L1 1 3 995.384758n 
R1 1 3 572.47847392 
C1 1 3 1.506756168p 
R2 3 4 571.08390808 
L2 3 4 405.377617n 
C2 3 4 1.000589352p 
RDC 4 2 .45 
.ENDS MMZ1608Y751B 

*

*Chip Bead for Signal Line Z=120ohm Idc=500mA
.SUBCKT MMZ2012D121B  1 2 
L1 1 3 149.1990331n 
R1 1 3 618.1498096408 
C1 1 3 1.3065589491p 
R2 3 4 601.6477451609 
L2 3 4 73.015042n 
C2 3 4 3.9263753841p 
RDC 4 2 .3 
.ENDS MMZ2012D121B 

*

*Chip Bead for Signal Line Z=300ohm Idc=400mA
.SUBCKT MMZ2012D301B  1 2 
L1 1 3 116.0751100004n 
R1 1 3 2.0514348139K 
C1 1 3 3.784157697p 
R2 3 4 2.0587763596K 
L2 3 4 339.9313270004n 
C2 3 4 1.2090189p 
RDC 4 2 .5 
.ENDS MMZ2012D301B 

*

*Chip Bead for Signal Line Z=80ohm Idc=500mA
.SUBCKT MMZ2012D800B  1 2 
L1 1 3 71.0931979n 
R1 1 3 334.1923828209 
C1 1 3 2.9004200221p 
R2 3 4 333.9884451789 
L2 3 4 83.8251181n 
C2 3 4 1.5549697621p 
RDC 4 2 .3 
.ENDS MMZ2012D800B 

*

*Chip Bead for Signal Line Z=1000ohm Idc=500mA
.SUBCKT MMZ2012R102A  1 2 
L1 1 3 8.45433469u 
R1 1 3 621.903325 
C1 1 3 2.40487029p 
R2 3 4 650.0641429 
L2 3 4 1.8615238u 
C2 3 4 1.56941631p 
RDC 4 2 .3 
.ENDS MMZ2012R102A 

*

*Chip Bead for Signal Line Z=120ohm Idc=800mA
.SUBCKT MMZ2012R121A  1 2 
L1 1 3 96.949417n 
R1 1 3 56.70387493 
C1 1 3 1.696874073p 
R2 3 4 77.02171753 
L2 3 4 961.796533n 
C2 3 4 1.315387743p 
RDC 4 2 .12 
.ENDS MMZ2012R121A 

*

*Chip Bead for Signal Line Z=15ohm Idc=1500mA
.SUBCKT MMZ2012R150A  1 2 
L1 1 3 11.7598789n 
R1 1 3 7.789578811 
C1 1 3 7.0442445799p 
R2 3 4 12.734597431 
L2 3 4 171.9218503n 
C2 3 4 3.6619250221p 
RDC 4 2 .05 
.ENDS MMZ2012R150A 

*

*Chip Bead for Signal Line Z=30ohm Idc=1500mA
.SUBCKT MMZ2012R300A  1 2 
L1 1 3 19.6243207698n 
R1 1 3 13.8385978448 
C1 1 3 3.826501763p 
R2 3 4 22.1812299706 
L2 3 4 305.7764468654n 
C2 3 4 2.5622619051p 
RDC 4 2 .05 
.ENDS MMZ2012R300A 

*

*Chip Bead for Signal Line Z=300ohm Idc=600mA
.SUBCKT MMZ2012R301A  1 2 
L1 1 3 321.797593n 
R1 1 3 192.84682657 
C1 1 3 1.58610735p 
R2 3 4 201.81619717 
L2 3 4 2.522264563u 
C2 3 4 3.086485457p 
RDC 4 2 .15 
.ENDS MMZ2012R301A 

*

*Chip Bead for Signal Line Z=60ohm Idc=1000mA
.SUBCKT MMZ2012R600A  1 2 
L1 1 3 491.485747n 
R1 1 3 45.95636143 
C1 1 3 2.605840303p 
R2 3 4 34.61545117 
L2 3 4 42.031837n 
C2 3 4 3.156385477p 
RDC 4 2 .1 
.ENDS MMZ2012R600A 

*

*Chip Bead for Signal Line Z=600ohm Idc=500mA
.SUBCKT MMZ2012R601A  1 2 
L1 1 3 4.842078457u 
R1 1 3 377.12899867 
C1 1 3 2.4980487p 
R2 3 4 371.35727233 
L2 3 4 760.552447n 
C2 3 4 1.334949033p 
RDC 4 2 .2 
.ENDS MMZ2012R601A 

*

*Chip Bead for Signal Line Z=1000ohm Idc=500mA
.SUBCKT MMZ2012S102A  1 2 