
* Added 11/1/2018., downloaded from TI
* Schematic File
*
* Syntax:
* .MODEL <model name> [AKO:<reference model name>] <ModelType>
* +([<parameter name>=<value>][LOT[/#][/GAUSS|/UNIFORM|/WCASE]=[<tol>[%]] |[-<low>%,<high>%]][DEV[/#][/GAUSS|/UNIFORM|/WCASE]=[<tol>[%]]...)
* ModelType must be one of OPA,D,NPN,NMOS,NJF,PUL,SIN,TRN,CORE,GASFET,VSWITCH,ISWITCH,CAP,IND,RES,PNP,PMOS,PJF,DOUTPUT,DINPUT,UADC,UDAC,UGATE,UTGATE,UEFF,UGFF,UDLY,UPLD,UROM,URAM,UBGT,UIO,LPNP,NIGBT,I,V
*
*Examples:
* .MODEL 2N2222A NPN(BF=150 IS=1E-14)
* .model M1 NMOS(KP=2.5E-5 VTO=1.345 CGDO=14.67p CGBO=4.566p)
* .MODEL DK D(IS=1E-18)
* .model 2N2222A AKO:2N2222 NPN (BF=55 ISE=10F)
* .Model BJT1 NPN (RE=12 LOT/1/GAUSS=30% DEV/2/UNIFORM=2%)
*
* A .cir file is typically found in the data directory
*
***  From file C:\mc12cd9\LIBRARY\OPA320.LIB
.subckt OPA320 IN+ IN- VCC VEE OUT
******************************************************
.model R_NOISELESS RES (TCE=0 T_ABS=-273.15)
******************************************************
I_OS        ESDn MID 1e-15
I_B         30 MID 2e-13
V_GRp       45 MID 87
V_GRn       46 MID -95
V_ISCp      39 MID 65
V_ISCn      40 MID -70.3799
V_ORn       38 VCLP -0.78005
V11         44 37 0
V_ORp       36 VCLP 0.78005
V12         43 35 0
V4          27 OUT 0
VCM_MIN     67 VEE_B -0.1
VCM_MAX     68 VCC_B 0.1
I_Q         VCC VEE 0.0015
V_OS        75 30 1.2435e-05
XU5         ESDp ESDn VCC VEE ESD_0
XU4         19 ESDp MID PSRR_CMRR_0
XU3         20 VEE_B MID PSRR_CMRR_1
XU2         21 VCC_B MID PSRR_CMRR_2
XU1         23 22 CLAMP VSENSE CLAW_CLAMP CL_CLAMP 24 26 27 MID AOL_ZO_0
C28         31 MID 1P
R77         32 31 R_NOISELESS 100
C27         33 MID 1P
R76         34 33 R_NOISELESS 100
R75         MID 35 R_NOISELESS 1
GVCCS8      35 MID 36 MID  -1
R74         37 MID R_NOISELESS 1
GVCCS7      37 MID 38 MID  -1
Xi_nn       ESDn MID FEMT_0
Xi_np       MID 30 FEMT_0
Xe_n        ESDp 30 VNSE_0
XIQPos      VIMON MID MID VCC VCCS_LIMIT_IQ_0
XIQNeg      MID VIMON VEE MID VCCS_LIMIT_IQ_0
C_DIFF      ESDp ESDn 5e-12
XCL_AMP     39 40 VIMON MID 41 42 CLAMP_AMP_LO_0
SOR_SWp     CLAMP 43 CLAMP 43  S_VSWITCH_1
SOR_SWn     44 CLAMP 44 CLAMP  S_VSWITCH_1
XGR_AMP     45 46 47 MID 48 49 CLAMP_AMP_HI_0
R39         45 MID R_NOISELESS 1T
R37         46 MID R_NOISELESS 1T
R42         VSENSE 47 R_NOISELESS 1M
C19         47 MID 1F
R38         48 MID R_NOISELESS 1
R36         MID 49 R_NOISELESS 1
R40         48 50 R_NOISELESS 1M
R41         49 51 R_NOISELESS 1M
C17         50 MID 1F
C18         MID 51 1F
XGR_SRC     50 51 CLAMP MID VCCS_LIM_GR_0
R21         41 MID R_NOISELESS 1
R20         MID 42 R_NOISELESS 1
R29         41 52 R_NOISELESS 1M
R30         42 53 R_NOISELESS 1M
C9          52 MID 1F
C8          MID 53 1F
XCL_SRC     52 53 CL_CLAMP MID VCCS_LIM_4_0
R22         39 MID R_NOISELESS 1T
R19         MID 40 R_NOISELESS 1T
XCLAWp      VIMON MID 54 VCC_B VCCS_LIM_CLAW+_0
XCLAWn      MID VIMON VEE_B 55 VCCS_LIM_CLAW-_0
R12         54 VCC_B R_NOISELESS 1K
R16         54 56 R_NOISELESS 1M
R13         VEE_B 55 R_NOISELESS 1K
R17         57 55 R_NOISELESS 1M
C6          57 MID 1F
C5          MID 56 1F
G2          VCC_CLP MID 56 MID  -1M
R15         VCC_CLP MID R_NOISELESS 1K
G3          VEE_CLP MID 57 MID  -1M
R14         MID VEE_CLP R_NOISELESS 1K
XCLAW_AMP   VCC_CLP VEE_CLP VOUT_S MID 58 59 CLAMP_AMP_LO_0
R26         VCC_CLP MID R_NOISELESS 1T
R23         VEE_CLP MID R_NOISELESS 1T
R25         58 MID R_NOISELESS 1
R24         MID 59 R_NOISELESS 1
R27         58 60 R_NOISELESS 1M
R28         59 61 R_NOISELESS 1M
C11         60 MID 1F
C10         MID 61 1F
XCLAW_SRC   60 61 CLAW_CLAMP MID VCCS_LIM_3_0
H2          34 MID V11 -1
H3          32 MID V12 1
C12         SW_OL MID 100P
R32         62 SW_OL R_NOISELESS 100
R31         62 MID R_NOISELESS 1
XOL_SENSE   MID 62 33 31 OL_SENSE_0
S1          24 26 SW_OL MID  S_VSWITCH_3
H1          63 MID V4 1K
S7          VEE OUT VEE OUT  S_VSWITCH_4
S6          OUT VCC OUT VCC  S_VSWITCH_4
R11         MID 64 R_NOISELESS 1T
R18         64 VOUT_S R_NOISELESS 100
C7          VOUT_S MID 1N
E5          64 MID OUT MID  1
C13         VIMON MID 1N
R33         63 VIMON R_NOISELESS 100
R10         MID 63 R_NOISELESS 1T
R47         65 VCLP R_NOISELESS 100
C24         VCLP MID 100P
E4          65 MID CL_CLAMP MID  1
C4          23 MID 1F
R9          23 66 R_NOISELESS 1M
R7          MID 67 R_NOISELESS 1T
R6          68 MID R_NOISELESS 1T
R8          MID 66 R_NOISELESS 1
XVCM_CLAMP  69 MID 66 MID 68 67 VCCS_EXT_LIM_0
E1          MID 0 70 0  1
R89         VEE_B 0 R_NOISELESS 1
R5          71 VEE_B R_NOISELESS 1M
C3          71 0 1F
R60         70 71 R_NOISELESS 1MEG
C1          70 0 1
R3          70 0 R_NOISELESS 1T
R59         72 70 R_NOISELESS 1MEG
C2          72 0 1F
R4          VCC_B 72 R_NOISELESS 1M
R88         VCC_B 0 R_NOISELESS 1
G17         VEE_B 0 VEE 0  -1
G16         VCC_B 0 VCC 0  -1
R_PSR       73 69 R_NOISELESS 1K
G_PSR       69 73 21 20  -1M
R2          22 ESDn R_NOISELESS 1M
R1          73 74 R_NOISELESS 1M
R_CMR       75 74 R_NOISELESS 1K
G_CMR       74 75 19 MID  -1M
C_CMn       ESDn MID 4e-12
C_CMp       MID ESDp 4e-12
R53         ESDn MID R_NOISELESS 1T
R52         MID ESDp R_NOISELESS 1T
R35         IN- ESDn R_NOISELESS 10M
R34         IN+ ESDp R_NOISELESS 10M
.MODEL S_VSWITCH_1 VSWITCH (RON=10e-3 ROFF=1e9 VON=10e-3 VOFF=0)
.MODEL S_VSWITCH_3 VSWITCH (RON=1e-3 ROFF=1e9 VON=900e-3 VOFF=800e-3)
.MODEL S_VSWITCH_4 VSWITCH (RON=50 ROFF=1e12 VON=500e-3 VOFF=450e-3)
.ENDS

***  From file C:\mc12cd9\LIBRARY\OPA320.LIB
.SUBCKT ESD_0 ESDp ESDn VCC VEE
S2          ESDn VCC ESDn VCC  S_VSWITCH_1
S4          VEE ESDn VEE ESDn  S_VSWITCH_1
S3          ESDp VCC ESDp VCC  S_VSWITCH_1
S5          VEE ESDp VEE ESDp  S_VSWITCH_1
.MODEL S_VSWITCH_1 VSWITCH (RON=50 ROFF=1e12 VON=500e-3 VOFF=450e-3)
.ENDS

***  From file C:\mc12cd9\LIBRARY\OPA320.LIB
.SUBCKT PSRR_CMRR_0 psrr_in psrr_vccb mid
.model R_NOISELESS RES ( TCE=0 T_ABS=-273.15)
R74         mid psrr_in R_NOISELESS 1
G_2         psrr_in mid 4 mid  -415.7994
R2b         mid 4 R_NOISELESS 241080.3941
C2a         4 5 3.3088e-14
R73         5 4 R_NOISELESS 100MEG
R49         mid 5 R_NOISELESS 1
GVCCS7      5 mid 6 mid  -1
R2a         mid 6 R_NOISELESS 130169.22
C1a         6 7 6.1213e-14
R48         7 6 R_NOISELESS 100MEG
G_1         7 mid psrr_vccb mid  -0.00086309
Rsrc        mid 7 R_NOISELESS 1
.ENDS

***  From file C:\mc12cd9\LIBRARY\OPA320.LIB
.SUBCKT PSRR_CMRR_1 psrr_in psrr_vccb psrr_mid
.model R_NOISELESS RES ( TCE=0 T_ABS=-273.15)
R80         psrr_mid psrr_in R_NOISELESS 427.1606
C27         psrr_in 4 1.8629e-11
R79         4 psrr_in R_NOISELESS 100MEG
GVCCS8      4 psrr_mid psrr_vccb psrr_mid  -1.1733
R78         psrr_mid 4 R_NOISELESS 1
.ENDS

***  From file C:\mc12cd9\LIBRARY\OPA320.LIB
.SUBCKT PSRR_CMRR_2 psrr_in psrr_vccb psrr_mid
.model R_NOISELESS RES ( TCE=0 T_ABS=-273.15)
R80         psrr_mid psrr_in R_NOISELESS 427.6126
C27         psrr_in 4 1.861e-11
R79         4 psrr_in R_NOISELESS 100MEG
GVCCS8      4 psrr_mid psrr_vccb psrr_mid  -1.1721
R78         psrr_mid 4 R_NOISELESS 1
.ENDS

***  From file C:\mc12cd9\LIBRARY\OPA320.LIB
.SUBCKT AOL_ZO_0 AOL_INP AOL_INN CLAMP VSENSE CLAW_CLAMP CL_CLAMP ZO_CLEFT ZO_CRIGHT ZO_OUT MID
.MODEL R_NOISELESS RES ( TCE=0 T_ABS=-273.15)
C1_A0          CLAMP MID 2.9191e-08
R4_A0          MID CLAMP R_NOISELESS 1MEG
XVCCS_LIM_2_A0 4_A0 MID MID CLAMP VCCS_LIM_2_0
R3_A0          MID 4_A0 R_NOISELESS 1MEG
XVCCS_LIM_1_A0 AOL_INP AOL_INN MID 4_A0 VCCS_LIM_1_0
R4_VS         VSENSE MID R_NOISELESS 1K
GVCCS4_VS     VSENSE MID CLAMP MID  -1M
C2_A2          out2 MID 8.1178e-16
R3_A2          out2 MID R_NOISELESS 1MEG
GVCCS3_A2      out2 MID VSENSE MID  -1U
R4_CC         CLAW_CLAMP MID R_NOISELESS 1K
GVCCS4_CC     CLAW_CLAMP MID out2 MID  -1M
R4_CL         CL_CLAMP MID R_NOISELESS 1K
GVCCS4_CL     CL_CLAMP MID CLAW_CLAMP MID  -1M
G_Aol_Zo    Zo_Cleft MID CL_CLAMP ZO_OUT  -341.4329
GVCCS1_1      outz1 MID Zo_Cright MID  -1.6071
C1_1          Zo_Cleft Zo_Cright 1.9761e-05
R2_1          Zo_Cright MID R_NOISELESS 16472.5442
R1_1          Zo_Cright Zo_Cleft R_NOISELESS 10K
Rdc_1         Zo_Cleft MID R_NOISELESS 1
GVCCS2_2      outz2 MID net2 MID  -1
C2_2          5_2 MID 3.5991e-14
R5_2          net2 5_2 R_NOISELESS 10K
R4_2          net2 outz1 R_NOISELESS 52922.6182
R7_2          outz1 MID R_NOISELESS 1
R1_3          2_3  MID R_NOISELESS 1
R11_3         5_3  MID R_NOISELESS 1057.1405
C4_3          5_3  outz2 1.5612e-15
R10_3         5_3  outz2 R_NOISELESS 10K
XVCVS_LIM_1 5_3  MID MID 2_3   VCCS_LIM_ZO_0
R9_3          outz2 MID R_NOISELESS 1
Rdummy      MID ZO_OUT R_NOISELESS 5247.284
Rx          ZO_OUT 2_3 R_NOISELESS 52472.84
.ENDS

***  From file C:\mc12cd9\LIBRARY\OPA320.LIB
.SUBCKT FEMT_0  1 2
.PARAM FLWF=10
.PARAM NLFF=0.6
.PARAM NVRF=0.6
.PARAM GLFF={PWR(FLWF,0.25)*NLFF/1164}
.PARAM RNVF={1.184*PWR(NVRF,2)}
.MODEL DVNF D KF={PWR(FLWF,0.5)/1E11} IS=1.0E-16
I1 0 7 10E-3
I2 0 8 10E-3
D1 7 0 DVNF
D2 8 0 DVNF
E1 3 6 7 8 {GLFF}
R1 3 0 1E9
R2 3 0 1E9
R3 3 6 1E9
E2 6 4 5 0 10
R4 5 0 {RNVF}
R5 5 0 {RNVF}
R6 3 4 1E9
R7 4 0 1E9
G1 1 2 3 4 1E-6
.ENDS

***  From file C:\mc12cd9\LIBRARY\OPA320.LIB
.SUBCKT VNSE_0  1 2
.PARAM FLW=10
.PARAM NLF=55
.PARAM NVR=7
.PARAM GLF={PWR(FLW,0.25)*NLF/1164}
.PARAM RNV={1.184*PWR(NVR,2)}
.MODEL DVN D KF={PWR(FLW,0.5)/1E11} IS=1.0E-16
I1 0 7 10E-3
I2 0 8 10E-3
D1 7 0 DVN
D2 8 0 DVN
E1 3 6 7 8 {GLF}
R1 3 0 1E9
R2 3 0 1E9
R3 3 6 1E9
E2 6 4 5 0 10
R4 5 0 {RNV}
R5 5 0 {RNV}
R6 3 4 1E9
R7 4 0 1E9
E3 1 2 3 4 1
.ENDS

***  From file C:\mc12cd9\LIBRARY\OPA320.LIB
.SUBCKT VCCS_LIMIT_IQ_0  VC+ VC- IOUT+ IOUT-
.PARAM GAIN = 1E-3
G1 IOUT- IOUT+ VALUE={IF( (V(VC+,VC-)<=0),0,GAIN*V(VC+,VC-) )}
.ENDS

***  From file C:\mc12cd9\LIBRARY\OPA320.LIB
.SUBCKT CLAMP_AMP_LO_0  VC+ VC- VIN COM VO+ VO-
.PARAM G=1
GVO+ COM VO+ VALUE = {IF(V(VIN,COM)>V(VC+,COM),((V(VIN,COM)-V(VC+,COM))*G),0)}
GVO- COM VO- VALUE = {IF(V(VIN,COM)<V(VC-,COM),((V(VC-,COM)-V(VIN,COM))*G),0)}
.ENDS

***  From file C:\mc12cd9\LIBRARY\OPA320.LIB
.SUBCKT CLAMP_AMP_HI_0  VC+ VC- VIN COM VO+ VO-
.PARAM G=10
GVO+ COM VO+ VALUE = {IF(V(VIN,COM)>V(VC+,COM),((V(VIN,COM)-V(VC+,COM))*G),0)}
GVO- COM VO- VALUE = {IF(V(VIN,COM)<V(VC-,COM),((V(VC-,COM)-V(VIN,COM))*G),0)}
.ENDS

***  From file C:\mc12cd9\LIBRARY\OPA320.LIB
.SUBCKT VCCS_LIM_GR_0  VC+ VC- IOUT+ IOUT-
.PARAM GAIN = 1
.PARAM IPOS = 0.61029
.PARAM INEG = -0.61029
G1 IOUT+ IOUT- VALUE={LIMIT(GAIN*V(VC+,VC-),INEG,IPOS)}
.ENDS

***  From file C:\mc12cd9\LIBRARY\OPA320.LIB
.SUBCKT VCCS_LIM_4_0  VC+ VC- IOUT+ IOUT-
.PARAM GAIN = 1
.PARAM IPOS = 0.3654
.PARAM INEG = -0.399
G1 IOUT+ IOUT- VALUE={LIMIT(GAIN*V(VC+,VC-),INEG,IPOS)}
.ENDS

***  From file C:\mc12cd9\LIBRARY\OPA320.LIB
.SUBCKT VCCS_LIM_CLAW+_0  VC+ VC- IOUT+ IOUT-
G1 IOUT+ IOUT- TABLE {ABS(V(VC+,VC-))} =
+(0, 5.481e-05)
+(17.8967, 0.00024133)
+(35.7934, 0.00062426)
+(47.7245, 0.0010174)
+(48.3211, 0.0010388)
+(49.5142, 0.0010818)
+(50.7073, 0.0011551)
+(51.9004, 0.0012284)
+(53.0935, 0.0013016)
+(53.6901, 0.0013382)
+(65, 0.00275)
.ENDS

***  From file C:\mc12cd9\LIBRARY\OPA320.LIB
.SUBCKT VCCS_LIM_CLAW-_0  VC+ VC- IOUT+ IOUT-
G1 IOUT+ IOUT- TABLE {ABS(V(VC+,VC-))} =
+(0, 8.511e-05)
+(23.46, 0.00034055)
+(46.9199, 0.00081156)
+(62.5599, 0.001302)
+(63.3419, 0.0013325)
+(64.9059, 0.0014003)
+(66.4699, 0.0014871)
+(68.0339, 0.0016347)
+(69.5979, 0.0018262)
+(70.3799, 0.0019681)
.ENDS

***  From file C:\mc12cd9\LIBRARY\OPA320.LIB
.SUBCKT VCCS_LIM_3_0  VC+ VC- IOUT+ IOUT-
.PARAM GAIN = 1
.PARAM IPOS = 0.1827
.PARAM INEG = -0.1995
G1 IOUT+ IOUT- VALUE={LIMIT(GAIN*V(VC+,VC-),INEG,IPOS)}
.ENDS

***  From file C:\mc12cd9\LIBRARY\OPA320.LIB
.SUBCKT OL_SENSE_0  COM SW+ OLN  OLP
GSW+ COM SW+ VALUE = {IF((V(OLN,COM)>10E-3 | V(OLP,COM)>10E-3),1,0)}
.ENDS

***  From file C:\mc12cd9\LIBRARY\OPA320.LIB
.SUBCKT VCCS_EXT_LIM_0  VIN+ VIN- IOUT- IOUT+ VP+ VP-
.PARAM GAIN = 1
G1 IOUT+ IOUT- VALUE={LIMIT(GAIN*V(VIN+,VIN-),V(VP-,VIN-), V(VP+,VIN-))}
.ENDS

***  From file C:\mc12cd9\LIBRARY\OPA320.LIB
.SUBCKT VCCS_LIM_2_0  VC+ VC- IOUT+ IOUT-
.PARAM GAIN = 0.040397
.PARAM IPOS = 0.30514
.PARAM INEG = -0.30474
G1 IOUT+ IOUT- VALUE={LIMIT(GAIN*V(VC+,VC-),INEG,IPOS)}
.ENDS

***  From file C:\mc12cd9\LIBRARY\OPA320.LIB
.SUBCKT VCCS_LIM_1_0  VC+ VC- IOUT+ IOUT-
.PARAM GAIN = 1E-4
.PARAM IPOS = .5
.PARAM INEG = -.5
G1 IOUT+ IOUT- VALUE={LIMIT(GAIN*V(VC+,VC-),INEG,IPOS)}
.ENDS

***  From file C:\mc12cd9\LIBRARY\OPA320.LIB
.SUBCKT VCCS_LIM_ZO_0  VC+ VC- IOUT+ IOUT-
.PARAM GAIN = 10.4595
.PARAM IPOS = 6821.47
.PARAM INEG = -7386.067
G1 IOUT+ IOUT- VALUE={LIMIT(GAIN*V(VC+,VC-),INEG,IPOS)}
.ENDS


* TLV2211 OPERATIONAL AMPLIFIER "MACROMODEL" SUBCIRCUIT
* CREATED USING PARTS RELEASE 4.03 ON 04/26/96 AT 12:39
* REV (N/A)  3 VOLT MODEL
* CONNECTIONS:   NON-INVERTING INPUT
*                | INVERTING INPUT
*                | | POSITIVE POWER SUPPLY
*                | | | NEGATIVE POWER SUPPLY
*                | | | | OUTPUT
*                | | | | |
.SUBCKT TLV2211_TI_3  1 2 3 4 5
*
  C1   11 12 10.86E-12
  C2    6  7 50.00E-12
  DC    5 53 DX
  DE   54  5 DX
  DLP  90 91 DX
  DLN  92 90 DX
  DP    4  3 DX
  EGND 99  0 POLY(2) (3,0) (4,0) 0 .5 .5
  FB 7 99 POLY(5) VB VC VE VLP VLN 0 3.006E6 -3E6 3E6 3E6 -3E6
  GA    6  0 11 12 10.05E-6
  GCM 0  6 10 99 1316.6E-12
  ISS   3 10 DC 1.250E-6
  HLIM 90  0 VLIM 1K
  J1   11  2 10 JX
  J2   12  1 10 JX
  R2    6  9 100.0E3
  RD1  60 11 99.47E3
  RD2  60 12 99.47E3
  RO1   8  5 50
  RO2   7 99 150
  RP 3  4 273.5E3
  RSS  10 99 160.0E6
  VAD  60 4 -0.5
  VB    9  0 DC 0
  VC 3 53 DC .56
  VE   54  4 DC .56
  VLIM  7  8 DC 0
  VLP  91  0 DC 0
  VLN 0 92 DC 2.5
.MODEL DX D(IS=800.0E-18)
.MODEL JX PJF(IS=500.0E-15 BETA=131.7E-6 VTO=-.02)
.ENDS
* TLV2362 OPERATIONAL AMPLIFIER "MACROMODEL" SUBCIRCUIT
* CREATED USING PARTS RELEASE 4.03 ON 01/05/96 AT 11:21
*
* (REV N/A) SUPPLY VOLTAGE +/-1.5V   (LEVEL II MODEL)
* CONNECTIONS:   NON-INVERTING INPUT
*                | INVERTING INPUT
*                | | POSITIVE POWER SUPPLY
*                | | | NEGATIVE POWER SUPPLY
*                | | | | OUTPUT
*                | | | | |
.SUBCKT TLV2362_TI_3_2  1 2 3 4 5
*
  C1   11 12 4.408E-12
  C2 6  7 37.00E-12
  C3 87 0 10.64E-9
  CPSR 85 86 15.9E-9
  DCM+ 81 82 DX
  DCM- 83 81 DX
  DC    5 53 DX
  DE   54  5 DX
  DLP  90 91 DX
  DLN  92 90 DX
  DP    4  3 DX
  ECMR 84 99 (2 99) 1
  EGND 99  0 POLY(2) (3,0) (4,0) 0 .5 .5
  EPSR 85 0 POLY(1) (3,4) -6E-6 2.0E-6
  ENSE 89 2 POLY(1) (88,0) 1.0E-3  1
  FB 7 99 POLY(6) VB VC VE VLP VLN VPSR 0 12.74E3 -40E6 40E6 40E6 -40E6 13E6
  GA    6  0 11 12 1.885E-3
  GCM 0  6 10 99 375.2E-9
  GPSR 85 86 (85,86) 100E-6
  GRC1 4 11 (4,11) 1.885E-3
  GRC2 4 12 (4,12) 1.885E-3
  GRE1 13 10 (13,10) 8.5689E-3
  GRE2 14 10 (14,10) 8.5689E-3
  HLIM 90  0 VLIM 1K
  HCMR 80 1 POLY(2) VCM+ VCM- 0 1E2 1E2
  IRP 3 4 1.275E-3
  IEE 3 10 DC 125.0E-6
  IIO 2 0 5E-9
  I1 88 0 1E-21
  Q1   11  89 13 QX
  Q2   12  80 14 QX
  R2    6  9 100.0E3
  RCM 84 81 1K
  REE  10 99 1.599E6
  RN1 87 0 2.55E8
  RN2 87 88 3.25E3
  RO1   8  5 50
  RO2   7 99 25
  VCM+ 82 99 0.0
  VCM- 83 99 -0.0
  VB    9  0 DC 0
  VC 3 53 DC .56
  VE   54  4 DC .56
  VLIM  7  8 DC 0
  VLP  91  0 DC .5
  VLN   0 92 DC 20
  VPSR 0 86 DC 0
.MODEL DX D(IS=800.0E-18)
.MODEL QX PNP(IS=800.0E-18 BF=3.125E3)
.ENDS
* TLV2211 OPERATIONAL AMPLIFIER "MACROMODEL" SUBCIRCUIT
* CREATED USING PARTS RELEASE 4.03 ON 04/26/96 AT 08:34
* REV (N/A)  5 VOLT MODEL
* CONNECTIONS:   NON-INVERTING INPUT
*                | INVERTING INPUT
*                | | POSITIVE POWER SUPPLY
*                | | | NEGATIVE POWER SUPPLY
*                | | | | OUTPUT
*                | | | | |
.SUBCKT TLV2211_TI_5  1 2 3 4 5
*
  C1   11 12 8.86E-12
  C2    6  7 50.00E-12
  DC    5 53 DX
  DE   54  5 DX
  DLP  90 91 DX
  DLN  92 90 DX
  DP    4  3 DX
  EGND 99  0 POLY(2) (3,0) (4,0) 0 .5 .5
  FB 7 99 POLY(5) VB VC VE VLP VLN 0 4.29E6 -6E6 6E6 6E6 -6E6
  GA    6  0 11 12 9.425E-6
  GCM 0  6 10 99 1320.2E-12
  ISS   3 10 DC 1.250E-6
  HLIM 90  0 VLIM 1K
  J1   11  2 10 JX
  J2   12  1 10 JX
  R2    6  9 100.0E3
  RD1  60 11 106.1E3
  RD2  60 12 106.1E3
  RO1   8  5 50
  RO2   7 99 150
  RP	3  4 419.2E3
  RSS  10 99 160.0E6
  VAD  60 4 -.5
  VB    9  0 DC 0
  VC 3 53 DC .55
  VE   54  4 DC .55
  VLIM  7  8 DC 0
  VLP  91  0 DC 0.1
  VLN 0 92 DC 2.6
.MODEL DX D(IS=800.0E-18)
.MODEL JX PJF(IS=500.0E-15 BETA=166.5E-6 VTO=-.004)
.ENDS
* TLV2221 OPERATIONAL AMPLIFIER "MACROMODEL" SUBCIRCUIT
* CREATED USING PARTS RELEASE 4.03 ON 06/17/96 AT 14:24
* REV(N/A)  3 VOLT MODEL
* CONNECTIONS:   NON-INVERTING INPUT
*                | INVERTING INPUT
*                | | POSITIVE POWER SUPPLY
*                | | | NEGATIVE POWER SUPPLY
*                | | | | OUTPUT
*                | | | | |
.SUBCKT TLV2221_TI_3  1 2 3 4 5
*
  C1   11 12 12.24E-12
  C2    6  7 50.00E-12
  DC    5 53 DX
  DE   54  5 DX
  DLP  90 91 DX
  DLN  92 90 DX
  DP    4  3 DX
  EGND 99  0 POLY(2) (3,0) (4,0) 0 .5 .5
  FB 7 99 POLY(5) VB VC VE VLP VLN 0 440.8E3 -80E3 80E3 80E3 -80E3
  GA    6  0 11 12 78.54E-6
  GCM 0  6 10 99 12.439E-9
  ISS   3 10 DC 9.000E-6
  HLIM 90  0 VLIM 1K
  J1   11  2 10 JX
  J2   12  1 10 JX
  R2    6  9 100.0E3
  RD1 60 11 12.73E3
  RD2 60 12 12.73E3
  RO1   8  5 45
  RO2   7 99 45
  RP 3  4 32.97E3
  RSS  10 99 22.22E6
  VAD  60 4 -.5
  VB    9  0 DC 0
  VC 3 53 DC .655
  VE   54  4 DC .655
  VLIM  7  8 DC 0
  VLP  91  0 DC 2.4
  VLN 0 92 DC 4.4
.MODEL DX D(IS=800.0E-18)
.MODEL JX PJF(IS=500.0E-15 BETA=1.371E-3 VTO=-.01)
.ENDS
* TLV2361 OPERATIONAL AMPLIFIER "MACROMODEL" SUBCIRCUIT
* CREATED USING PARTS RELEASE 4.03 ON 01/05/96 AT 11:21
*
* (REV N/A) SUPPLY VOLTAGE +/-1.5V   (LEVEL II MODEL)
* CONNECTIONS:   NON-INVERTING INPUT
*                | INVERTING INPUT
*                | | POSITIVE POWER SUPPLY
*                | | | NEGATIVE POWER SUPPLY
*                | | | | OUTPUT
*                | | | | |
.SUBCKT TLV2361_TI_3_2  1 2 3 4 5
*
  C1   11 12 4.408E-12
  C2 6  7 37.00E-12
  C3 87 0 10.64E-9
  CPSR 85 86 15.9E-9
  DCM+ 81 82 DX
  DCM- 83 81 DX
  DC    5 53 DX
  DE   54  5 DX
  DLP  90 91 DX
  DLN  92 90 DX
  DP    4  3 DX
  ECMR 84 99 (2 99) 1
  EGND 99  0 POLY(2) (3,0) (4,0) 0 .5 .5
  EPSR 85 0 POLY(1) (3,4) -6E-6 2.0E-6
  ENSE 89 2 POLY(1) (88,0) 1.0E-3  1
  FB 7 99 POLY(6) VB VC VE VLP VLN VPSR 0 12.74E3 -40E6 40E6 40E6 -40E6 13E6
  GA    6  0 11 12 1.885E-3
  GCM 0  6 10 99 375.2E-9
  GPSR 85 86 (85,86) 100E-6
  GRC1 4 11 (4,11) 1.885E-3
  GRC2 4 12 (4,12) 1.885E-3
  GRE1 13 10 (13,10) 8.5689E-3
  GRE2 14 10 (14,10) 8.5689E-3
  HLIM 90  0 VLIM 1K
  HCMR 80 1 POLY(2) VCM+ VCM- 0 1E2 1E2
  IRP 3 4 1.275E-3
  IEE 3 10 DC 125.0E-6
  IIO 2 0 5E-9
  I1 88 0 1E-21
  Q1   11  89 13 QX
  Q2   12  80 14 QX
  R2    6  9 100.0E3
  RCM 84 81 1K
  REE  10 99 1.599E6
  RN1 87 0 2.55E8
  RN2 87 88 3.25E3
  RO1   8  5 50
  RO2   7 99 25
  VCM+ 82 99 0.0
  VCM- 83 99 -0.0
  VB    9  0 DC 0
  VC 3 53 DC .56
  VE   54  4 DC .56
  VLIM  7  8 DC 0
  VLP  91  0 DC .5
  VLN   0 92 DC 20
  VPSR 0 86 DC 0
.MODEL DX D(IS=800.0E-18)
.MODEL QX PNP(IS=800.0E-18 BF=3.125E3)
.ENDS
* TLV2221 OPERATIONAL AMPLIFIER "MACROMODEL" SUBCIRCUIT
* CREATED USING PARTS RELEASE 4.03 ON 05/29/96 AT 15:56
* REV(N/A)  5 VOLT MODEL
* CONNECTIONS:   NON-INVERTING INPUT
*                | INVERTING INPUT
*                | | POSITIVE POWER SUPPLY
*                | | | NEGATIVE POWER SUPPLY
*                | | | | OUTPUT
*                | | | | |
.SUBCKT TLV2221_TI_5  1 2 3 4 5
*
  C1   11 12 12.53E-12
  C2    6  7 50.00E-12
  DC    5 53 DX
  DE   54  5 DX
  DLP  90 91 DX
  DLN  92 90 DX
  DP    4  3 DX
  EGND 99  0 POLY(2) (3,0) (4,0) 0 .5 .5
  FB 7 99 POLY(5) VB VC VE VLP VLN 0 893.6E3 -90E3 90E3 90E3 -90E3
  GA    6  0 11 12 94.25E-6
  GCM 0  6 10 99 9.300E-9
  ISS   3 10 DC 9.000E-6
  HLIM 90  0 VLIM 1K
  J1   11  2 10 JX
  J2   12  1 10 JX
  R2    6  9 100.0E3
  RD1 60 11 10.61E3
  RD2 60 12 10.61E3
  RO1   8  5 35
  RO2   7 99 35
  RP 3  4 49.50E3
  RSS  10 99 22.22E6
  VAD  60 4 -.5
  VB    9  0 DC 0
  VC 3 53 DC .666
  VE   54  4 DC .666
  VLIM  7  8 DC 0
  VLP  91  0 DC 3.4
  VLN 0 92 DC 11.4
.MODEL DX D(IS=800.0E-18)
.MODEL JX PJF(IS=500.0E-15 BETA=1.527E-3 VTO=-.001)
.ENDS
* TLV2231 OPERATIONAL AMPLIFIER "MACROMODEL" SUBCIRCUIT
* CREATED USING PARTS RELEASE 4.03 ON 05/30/96 AT 10:21
* REV(N/A) 5 VOLT MODEL (LEVEL II)
* CONNECTIONS:   NON-INVERTING INPUT
*                | INVERTING INPUT
*                | | POSITIVE POWER SUPPLY
*                | | | NEGATIVE POWER SUPPLY
*                | | | | OUTPUT
*                | | | | |
.SUBCKT TLV2231_TI_5_2  1 2 3 4 5
*
  C1   11 12 13.51E-12
  C2    6  7 50.00E-12
  CPSR 85 86 5.3E-9
  DCM+ 81 82 DX
  DCM- 83 81 DX
  DC    5 53 DX
  DE   54  5 DX
  DLP  90 91 DX
  DLN  92 90 DX
  DP    4  3 DX
  ECMR 84 99 (2,99) 1
  EGND 99  0 POLY(2) (3,0) (4,0) 0 .5 .5
  EPSR 85 0 POLY(1) (3,4) -500E-6 100E-6
  ENSE 89 2 POLY(1) (88,0) 400E-6 1
  FB 7 99 POLY(6) VB VC VE VLP VLN VPSR 0 90.83E3 -10E3 10E3 10E3 -10E3 10.5E4
  GA    6  0 11 12 314.2E-6
  GCM 0  6 10 99 242.35E-9
  GPSR 85 86 (85,86) 100E-6
  GRD1 60 11 (60,11) 314.16E-6
  GRD2 60 12 (60,12) 314.16E-6
  HLIM 90  0 VLIM 1K
  HCMR 80 1 POLY(2) VCM+ VCM- 0 1E2 1E2
  IRP 3 4 763E-6
  ISS 3 10 DC 87.00E-6
  IIO 2 0 .5E-12
  I1 88 0 1E-21
  J1   11  89 10 JX
  J2   12  80 10 JX
  R2    6  9 100.0E3
  RCM 84 81 1K
  RN1 88 0 5E3
  RO1   8  5 25
  RO2   7 99 25
  RSS  10 99 2.500E6
  VAD  60  4  -.5
  VCM+ 82 99 1.1
  VCM- 83 99 -2.4
  VB    9  0 DC 0
  VC 3 53 DC .795
  VE   54  4 DC .795
  VLIM  7  8 DC 0
  VLP  91  0 DC 12.4
  VLN 0 92 DC 17.4
  VPSR 0 86 DC 0
.MODEL DX D(IS=800.0E-18)
.MODEL JX PJF(IS=500.0E-15 BETA=2.939E-3 VTO=-.065 KF=6.4E-16)
.ENDS
* TLV2231 OPERATIONAL AMPLIFIER "MACROMODEL" SUBCIRCUIT
* CREATED USING PARTS RELEASE 4.03 ON 06/19/96 AT 14:18
* REV(N/A) 3 VOLT MODEL
* CONNECTIONS:   NON-INVERTING INPUT
*                | INVERTING INPUT
*                | | POSITIVE POWER SUPPLY
*                | | | NEGATIVE POWER SUPPLY
*                | | | | OUTPUT
*                | | | | |
.SUBCKT TLV2231_TI_3  1 2 3 4 5
*
  C1   11 12 12.3E-12
  C2    6  7 50.00E-12
  DC    5 53 DX
  DE   54  5 DX
  DLP  90 91 DX
  DLN  92 90 DX
  DP    4  3 DX
  EGND 99  0 POLY(2) (3,0) (4,0) 0 .5 .5
  FB 7 99 POLY(5) VB VC VE VLP VLN 0 114E3 -20E3 20E3 20E3 -20E3
  GA    6  0 11 12 314.2E-6
  GCM 0  6 10 99 210.5E-9
  ISS 3 10 DC 71.20E-6
  HLIM 90  0 VLIM 1K
  J1   11  2 10 JX
  J2   12  1 10 JX
  R2    6  9 100.0E3
  RD1 60 11 3.183E3
  RD2 60 12 3.183E3
  RO1   8  5 50
  RO2   7 99 25
  RP 3  4 4.420E3
  RSS  10 99 3.200E6
  VAD  60 4 -.5
  VB    9  0 DC 0
  VC 3 53 DC .705
  VE   54  4 DC .705
  VLIM  7  8 DC 0
  VLP  91  0 DC 8.4
  VLN 0 92 DC 13.4
.MODEL DX D(IS=800.0E-18)
.MODEL JX PJF(IS=500.0E-15 BETA=3.158E-3 VTO=-.055)
.ENDS
* TLV2231 OPERATIONAL AMPLIFIER "MACROMODEL" SUBCIRCUIT
* CREATED USING PARTS RELEASE 4.03 ON 06/19/96 AT 14:18
* REV(N/A) 3 VOLT MODEL (LEVEL II)
* CONNECTIONS:   NON-INVERTING INPUT
*                | INVERTING INPUT
*                | | POSITIVE POWER SUPPLY
*                | | | NEGATIVE POWER SUPPLY
*                | | | | OUTPUT
*                | | | | |
.SUBCKT TLV2231_TI_3_2  1 2 3 4 5
*
  C1   11 12 12.3E-12
  C2    6  7 50.00E-12
  CPSR 85 86 5.3E-9
  DCM+ 81 82 DX
  DCM- 83 81 DX
  DC    5 53 DX
  DE   54  5 DX
  DLP  90 91 DX
  DLN  92 90 DX
  DP    4  3 DX
  ECMR 84 99 (2,99) 1
  EGND 99  0 POLY(2) (3,0) (4,0) 0 .5 .5
  EPSR 85 0 POLY(1) (3,4) -300E-6  100E-6
  ENSE 89 2 POLY(1) (88,0) 400E-6 1
  FB 7 99 POLY(6) VB VC VE VLP VLN VPSR 0 114E3 -20E3 20E3 20E3 -20E3 12.5E4
  GA    6  0 11 12 314.2E-6
  GCM 0  6 10 99 210.5E-9
  GPSR 85 86 (85,86) 100E-6
  GRD1 60 11 (60,11) 314.17E-6
  GRD2 60 12 (60,12) 314.17E-6
  HLIM 90  0 VLIM 1K
  HCMR 80 1 POLY(2) VCM+ VCM- 0 1E2 1E2
  IRP 3 4 678.7E-6
  ISS 3 10 DC 71.20E-6
  IIO  2 0 .5E-12
  I1 88 0 1E-21
  J1   11  89 10 JX
  J2   12  80 10 JX
  R2    6  9 100.0E3
  RCM 84 81 1K
  RN1 88 0 10E3
  RO1   8  5 50
  RO2   7 99 25
  RSS  10 99 3.200E6
  VAD  60 4 -.5
  VCM+ 82 99 0.2
  VCM- 83 99 -1.5
  VB    9  0 DC 0
  VC 3 53 DC .705
  VE   54  4 DC .705
  VLIM  7  8 DC 0
  VLP  91  0 DC 8.4
  VLN 0 92 DC 13.4
  VPSR 0 86 DC 0
.MODEL DX D(IS=800.0E-18)
.MODEL JX PJF(IS=500.0E-15 BETA=3.158E-3 VTO=-.055 KF=6.6E-16)
.ENDS
* TLV2231 OPERATIONAL AMPLIFIER "MACROMODEL" SUBCIRCUIT
* CREATED USING PARTS RELEASE 4.03 ON 05/30/96 AT 10:21
* REV(N/A) 5 VOLT MODEL
* CONNECTIONS:   NON-INVERTING INPUT
*                | INVERTING INPUT
*                | | POSITIVE POWER SUPPLY
*                | | | NEGATIVE POWER SUPPLY
*                | | | | OUTPUT
*                | | | | |
.SUBCKT TLV2231_TI_5  1 2 3 4 5
*
  C1   11 12 13.51E-12
  C2    6  7 50.00E-12
  DC    5 53 DX
  DE   54  5 DX
  DLP  90 91 DX
  DLN  92 90 DX
  DP    4  3 DX
  EGND 99  0 POLY(2) (3,0) (4,0) 0 .5 .5
  FB 7 99 POLY(5) VB VC VE VLP VLN 0 90.83E3 -10E3 10E3 10E3 -10E3
  GA    6  0 11 12 314.2E-6
  GCM 0  6 10 99 242.35E-9
  ISS 3 10 DC 87.00E-6
  HLIM 90  0 VLIM 1K
  J1   11  2 10 JX
  J2   12  1 10 JX
  R2    6  9 100.0E3
  RD1 60 11 3.183E3
  RD2 60 12 3.183E3
  RO1   8  5 25
  RO2   7 99 25
  RP 3  4 6.553E3
  RSS  10 99 2.500E6
  VAD  60  4  -.5
  VB    9  0 DC 0
  VC 3 53 DC .795
  VE   54  4 DC .795
  VLIM  7  8 DC 0
  VLP  91  0 DC 12.4
  VLN 0 92 DC 17.4
.MODEL DX D(IS=800.0E-18)
.MODEL JX PJF(IS=500.0E-15 BETA=2.939E-3 VTO=-.065)
.ENDS
* TLV2211 OPERATIONAL AMPLIFIER "MACROMODEL" SUBCIRCUIT
* CREATED USING PARTS RELEASE 4.03 ON 04/26/96 AT 08:34
* REV (N/A)  5 VOLT MODEL (LEVEL II)
* CONNECTIONS:   NON-INVERTING INPUT
*                | INVERTING INPUT
*                | | POSITIVE POWER SUPPLY
*                | | | NEGATIVE POWER SUPPLY
*                | | | | OUTPUT
*                | | | | |
.SUBCKT TLV2211_TI_5_2  1 2 3 4 5
*
  C1   11 12 8.86E-12
  C2    6  7 50.00E-12
  CPSR 85 86 159.2E-9
  DCM+ 81 82 DX
  DCM- 83 81 DX
  DC    5 53 DX
  DE   54  5 DX
  DLP  90 91 DX
  DLN  92 90 DX
  DP    4  3 DX
  ECMR 84 99 (2,99) 1
  EGND 99  0 POLY(2) (3,0) (4,0) 0 .5 .5
  EPSR 85 0 POLY(1) (3,4) -500E-6 100E-6
  ENSE 89 2 POLY(1) (88,0) 500E-6 1
  FB 7 99 POLY(6) VB VC VE VLP VLN VPSR 0 4.29E6 -6E6 6E6 6E6 -6E6 1.6E5
  GA    6  0 11 12 9.425E-6
  GCM 0  6 10 99 1320.2E-12
  GPSR 85 86 (85,86) 100E-6
  GRD1 60 11 (60,11) 9.425E-6
  GRD2 60 12 (60,12) 9.425E-6
  HLIM 90  0 VLIM 1K
  HCMR 80 1 POLY(2) VCM+ VCM- 0 1E2 1E2
  IRP 3 4 11.93E-6
  ISS   3 10 DC 1.250E-6
  IIO 2 0 0.5E-12
  I1 88 0 1E-21
  J1   11  89 10 JX
  J2   12  80 10 JX
  R2    6  9 100.0E3
  RCM  84 81 1E3
  RN1  88 0 1E2
  RO1   8  5 50
  RO2   7 99 150
  RSS  10 99 160.0E6
  VCM+ 82 99 0.7
  VCM- 83 99 -2.5
  VAD  60 4 -.5
  VB    9  0 DC 0
  VC 3 53 DC .55
  VE   54  4 DC .55
  VLIM  7  8 DC 0
  VLP  91  0 DC 0.1
  VLN 0 92 DC 2.6
  VPSR 0 86 DC 0
.MODEL DX D(IS=800.0E-18)
.MODEL JX PJF(IS=500.0E-15 BETA=166.5E-6 VTO=-.004 KF=1.4E-17)
.ENDS
* TLV2361 OPERATIONAL AMPLIFIER "MACROMODEL" SUBCIRCUIT
* CREATED USING PARTS RELEASE 4.03 ON 01/05/96 AT 11:21
*
* (REV N/A) SUPPLY VOLTAGE +/-1.5V
* CONNECTIONS:   NON-INVERTING INPUT
*                | INVERTING INPUT
*                | | POSITIVE POWER SUPPLY
*                | | | NEGATIVE POWER SUPPLY
*                | | | | OUTPUT
*                | | | | |
.SUBCKT TLV2361_TI_3  1 2 3 4 5
*
  C1   11 12 4.408E-12
  C2 6  7 37.00E-12
  DC    5 53 DX
  DE   54  5 DX
  DLP  90 91 DX
  DLN  92 90 DX
  DP    4  3 DX
  EGND 99  0 POLY(2) (3,0) (4,0) 0 .5 .5
  FB 7 99 POLY(5) VB VC VE VLP VLN 0 12.74E3 -40E6 40E6 40E6 -40E6
  GA    6  0 11 12 1.885E-3
  GCM 0  6 10 99 375.2E-9
  IEE   3 10 DC 125.0E-6
  HLIM 90  0 VLIM 1K
  Q1   11  2 13 QX
  Q2   12  1 14 QX
  R2    6  9 100.0E3
  RC1   4 11 530.5
  RC2   4 12 530.5
  RE1  13 10 116.7
  RE2  14 10 116.7
  REE  10 99 1.599E6
  RO1   8  5 50
  RO2   7 99 25
  RP    3  4 2.353E3
  VB    9  0 DC 0
  VC 3 53 DC .56
  VE   54  4 DC .56
  VLIM  7  8 DC 0
  VLP  91  0 DC .5
  VLN   0 92 DC 20
.MODEL DX D(IS=800.0E-18)
.MODEL QX PNP(IS=800.0E-18 BF=3.125E3)
.ENDS
* TLV2221 OPERATIONAL AMPLIFIER "MACROMODEL" SUBCIRCUIT
* CREATED USING PARTS RELEASE 4.03 ON 06/17/96 AT 14:24
* REV(N/A)  3 VOLT MODEL (LEVEL II)
* CONNECTIONS:   NON-INVERTING INPUT
*                | INVERTING INPUT
*                | | POSITIVE POWER SUPPLY
*                | | | NEGATIVE POWER SUPPLY
*                | | | | OUTPUT
*                | | | | |
.SUBCKT TLV2221_TI_3_2  1 2 3 4 5
*
  C1   11 12 12.24E-12
  C2    6  7 50.00E-12
  CPSR	85 86 53E-9
  DCM+	81 82 DX
  DCM-	83 81 DX
  DC    5 53 DX
  DE   54  5 DX
  DLP  90 91 DX
  DLN  92 90 DX
  DP    4  3 DX
  ECMR 84 99 (2,99) 1
  EGND 99  0 POLY(2) (3,0) (4,0) 0 .5 .5
  EPSR 85 0 POLY(1) (3,4) -300E-6  100E-6
  ENSE 89 2 POLY(1) (88,0) 400E-6 1
  FB 7 99 POLY(6) VB VC VE VLP VLN VPSR 0 440.8E3 -80E3 80E3 80E3 -80E3 12E4
  GA    6  0 11 12 78.54E-6
  GCM 0  6 10 99 12.439E-9
  GPSR 85 86 (85,86) 100E-6
  GRD1 60 11 (60,11) 78.555E-6
  GRD2 60 12 (60,12) 78.555E-6
  HLIM 90  0 VLIM 1K
  HCMR 80 1 POLY(2) VCM+ VCM- 0 1E2 1E2
  IRP 3 4 90.99E-6
  ISS   3 10 DC 9.000E-6
  IIO 2 0 .5E-12
  I1 88 0 1E-21
  J1   11  89 10 JX
  J2   12  80 10 JX
  R2    6  9 100.0E3
  RCM 84 81 1K
  RN1 88 0 13E3
  RO1   8  5 45
  RO2   7 99 45
  RSS  10 99 22.22E6
  VAD  60 4 -.5
  VCM+ 82 99 0.2
  VCM- 83 99 -1.5
  VB    9  0 DC 0
  VC 3 53 DC .655
  VE   54  4 DC .655
  VLIM  7  8 DC 0
  VLP  91  0 DC 2.4
  VLN 0 92 DC 4.4
  VPSR 0 86 DC 0
.MODEL DX D(IS=800.0E-18)
.MODEL JX PJF(IS=500.0E-15 BETA=1.371E-3 VTO=-.005 KF=3.8E-16)
.ENDS
* TLV2361 OPERATIONAL AMPLIFIER "MACROMODEL" SUBCIRCUIT
* CREATED USING PARTS RELEASE 4.03 ON 01/05/96 AT 15:51
*
* REV (N/A) SUPPLY VOLTAGE +/-2.5V
* CONNECTIONS:   NON-INVERTING INPUT
*                | INVERTING INPUT
*                | | POSITIVE POWER SUPPLY
*                | | | NEGATIVE POWER SUPPLY
*                | | | | OUTPUT
*                | | | | |
.SUBCKT TLV2361_TI_5  1 2 3 4 5
*
  C1   11 12 4.408E-12
  C2 6  7 40.00E-12
  DC    5 53 DX
  DE   54  5 DX
  DLP  90 91 DX
  DLN  92 90 DX
  DP    4  3 DX