********************************
* Copyright:                   *
* Vishay Intertechnology, Inc. *
********************************
* Vishay PSPICE library for through holes VDR
* $Revision:   1.0  $
* $Author:   Alain Stas  $
* $Date:   04 Sept 2015 $
* $Revision History : 
*---------------------------------------------------------------
*
* Vishay VDR (voltage dependent resistors) included in this file : VDRS/VDRH
* DESCRIPTION: through hole VDR (Varistors)
* For electrical limitations, see
* VDRS : http://www.vishay.com/docs/29081/vdrs.pdf
* VDRH : http://www.vishay.com/varistors/list/product-29082
* or use the search engine of Vishay for visualizing particular data sheet at http://www.vishay.com/
*
* the model is applicable for transient and steady states AC and DC .
*
*
*
.SUBCKT VDR_BASE_MODEL 1 2  PARAMs:  B1=1 B2=1 B3=1 B4=1  L=1h C=1pf  T=1
C_C1         2 4  {C}   
V_V1         4 5 0Vdc   
E_E1         5 2 VALUE { T*(
+ PWR(10,
+  B1+B2*(LOG10(LIMIT(V(6),1m,100G))-4)+B3*EXP(-LOG10(LIMIT(V(6),1m,100G))+4)+B4*EXP(LOG10(LIMIT(V(6),1m,100G))-4)
+ )
+ -PWR(10,
+  B1+B2*(LOG10(-LIMIT(V(6),-100G,-1m))-4)+B3*EXP(-LOG10(-LIMIT(V(6),-100G,-1m))+4)+B4*EXP(LOG10(-LIMIT(V(6),-100G,-1m))-4)
+ )
+ +LIMIT((V(6)*1K*V(7)),-V(7),V(7))
+ ) }
E_E2         6 0 VALUE { +(I(V_V1))*10K }
R_R1         3 1  100u  
L_L1         4 3  {L}  
R_R3         0 6  1T  
R_R4         0 7  1T  
E_E3         7 0 VALUE { PWR(10,(B1+B2*(-7)+B3*EXP(+7)+B4*EXP(-7))) }
.ENDS
*$
*
.SUBCKT VDRH05B011 1  2 PARAMS: TOL=0
X1  1 2 VDR_BASE_MODEL  PARAMS: T = {1+TOL/100}  C= 1600pF  L=8nH  B1= 1.48784225352783
+  B2=0.0723488092666941  B3=-0.000219701399205325  B4=0.0249934940562207
.ENDS
*$
*
.SUBCKT VDRH05B014 1  2 PARAMS: TOL=0
X2  1 2 VDR_BASE_MODEL  PARAMS: T = {1+TOL/100}  C= 1300pF  L=8nH  B1= 1.5812308285428
+  B2=0.0721551739182533  B3=-0.000505155420898841  B4=0.025497278282982
.ENDS
*$
*
.SUBCKT VDRH05B017 1  2 PARAMS: TOL=0
X3  1 2 VDR_BASE_MODEL  PARAMS: T = {1+TOL/100}  C= 1050pF  L=8nH  B1= 1.69937217260622
+  B2=0.0837928272881226  B3=-9.23734242995345E-05  B4=0.0228258410244621
.ENDS
*$
*
.SUBCKT VDRH05B020 1  2 PARAMS: TOL=0
X4  1 2 VDR_BASE_MODEL  PARAMS: T = {1+TOL/100}  C= 900pF  L=8nH  B1= 1.77803673701088
+  B2=0.0762914625989429  B3=-0.000242600113511244  B4=0.022762782139269
.ENDS
*$
*
.SUBCKT VDRH05B025 1  2 PARAMS: TOL=0
X5  1 2 VDR_BASE_MODEL  PARAMS: T = {1+TOL/100}  C= 500pF  L=8nH  B1= 1.84341027631301
+  B2=0.0703343572211114  B3=-0.000448914010965239  B4=0.0255568943988259
.ENDS
*$
*
.SUBCKT VDRH05B030 1  2 PARAMS: TOL=0
X6  1 2 VDR_BASE_MODEL  PARAMS: T = {1+TOL/100}  C= 700pF  L=8nH  B1= 1.93400628227911
+  B2=0.0751632825143853  B3=-0.000356625909301443  B4=0.0224339921489028
.ENDS
*$
*
.SUBCKT VDRH05B035 1  2 PARAMS: TOL=0
X7  1 2 VDR_BASE_MODEL  PARAMS: T = {1+TOL/100}  C= 560pF  L=8nH  B1= 2.00338249979319
+  B2=0.0720452771473565  B3=-0.000422278414133302  B4=0.0245178498406733
.ENDS
*$
*
.SUBCKT VDRH05B040 1  2 PARAMS: TOL=0
X8  1 2 VDR_BASE_MODEL  PARAMS: T = {1+TOL/100}  C= 460pF  L=8nH  B1= 2.06209773990814
+  B2=0.0714162323188475  B3=-0.000217997016577076  B4=0.0264060514435561
.ENDS
*$
*
.SUBCKT VDRH05E050 1  2 PARAMS: TOL=0
X9  1 2 VDR_BASE_MODEL  PARAMS: T = {1+TOL/100}  C= 370pF  L=8nH  B1= 2.06945510257039
+  B2=0.0536704480751922  B3=0.000107598449688909  B4=0.00900142357603173
.ENDS
*$
*
.SUBCKT VDRH05E060 1  2 PARAMS: TOL=0
X10  1 2 VDR_BASE_MODEL  PARAMS: T = {1+TOL/100}  C= 290pF  L=8nH  B1= 2.15384628021081
+  B2=0.0527176896194564  B3=8.88689021359234E-05  B4=0.0075693497338711
.ENDS
*$
*
.SUBCKT VDRH05E075 1  2 PARAMS: TOL=0
X11  1 2 VDR_BASE_MODEL  PARAMS: T = {1+TOL/100}  C= 240pF  L=8nH  B1= 2.23194298811114
+  B2=0.0507362712433863  B3=1.15183506432149E-05  B4=0.00683102768254513
.ENDS
*$
*
.SUBCKT VDRH05E095 1  2 PARAMS: TOL=0
X12  1 2 VDR_BASE_MODEL  PARAMS: T = {1+TOL/100}  C= 180pF  L=8nH  B1= 2.32190240327496
+  B2=0.0468420860370325  B3=-0.000144007184571138  B4=0.00721136789037942
.ENDS
*$
*
.SUBCKT VDRH05E115 1  2 PARAMS: TOL=0
X13  1 2 VDR_BASE_MODEL  PARAMS: T = {1+TOL/100}  C= 150pF  L=8nH  B1= 2.41024106656174
+  B2=0.048893754704939  B3=-0.000256562136748241  B4=0.00697268682723467
.ENDS
*$
*
.SUBCKT VDRH05E130 1  2 PARAMS: TOL=0
X14  1 2 VDR_BASE_MODEL  PARAMS: T = {1+TOL/100}  C= 130pF  L=8nH  B1= 2.46045640978182
+  B2=0.0475541246027854  B3=-0.000272612147834774  B4=0.00660238216880319
.ENDS
*$
*
.SUBCKT VDRH05E140 1  2 PARAMS: TOL=0
X15  1 2 VDR_BASE_MODEL  PARAMS: T = {1+TOL/100}  C= 120pF  L=8nH  B1= 2.48867513970186
+  B2=0.0467812011142598  B3=-0.000224743113346208  B4=0.00696516716391976
.ENDS
*$
*
.SUBCKT VDRH05E150 1  2 PARAMS: TOL=0
X16  1 2 VDR_BASE_MODEL  PARAMS: T = {1+TOL/100}  C= 110pF  L=8nH  B1= 2.52777259248773
+  B2=0.0474159994515293  B3=-0.000222729986683949  B4=0.00670174408885866
.ENDS
*$
*
.SUBCKT VDRH05E175 1  2 PARAMS: TOL=0
X17  1 2 VDR_BASE_MODEL  PARAMS: T = {1+TOL/100}  C= 90pF  L=8nH  B1= 2.58895031482515
+  B2=0.0483354134482837  B3=-0.000262919701711182  B4=0.00614101174707071
.ENDS
*$
*
.SUBCKT VDRH05E195 1  2 PARAMS: TOL=0
X18  1 2 VDR_BASE_MODEL  PARAMS: T = {1+TOL/100}  C= 80pF  L=8nH  B1= 2.62662373162026
+  B2=0.0473860960742497  B3=-0.000235937488060133  B4=0.00714691816371689
.ENDS
*$
*
.SUBCKT VDRH05E210 1  2 PARAMS: TOL=0
X19  1 2 VDR_BASE_MODEL  PARAMS: T = {1+TOL/100}  C= 75pF  L=8nH  B1= 2.66400850340438
+  B2=0.0462920775761618  B3=-0.000137265058416317  B4=0.00768691304447737
.ENDS
*$
*
.SUBCKT VDRH05E230 1  2 PARAMS: TOL=0
X20  1 2 VDR_BASE_MODEL  PARAMS: T = {1+TOL/100}  C= 70pF  L=8nH  B1= 2.69830044327492
+  B2=0.0458276719650477  B3=-7.30632893502486E-05  B4=0.00758647833436955
.ENDS
*$
*
.SUBCKT VDRH05E250 1  2 PARAMS: TOL=0
X21  1 2 VDR_BASE_MODEL  PARAMS: T = {1+TOL/100}  C= 60pF  L=8nH  B1= 2.73226726280327
+  B2=0.0448063561237652  B3=-0.000100216938280866  B4=0.00822066914418831
.ENDS
*$
*
.SUBCKT VDRH05E275 1  2 PARAMS: TOL=0
X22  1 2 VDR_BASE_MODEL  PARAMS: T = {1+TOL/100}  C= 55pF  L=8nH  B1= 2.77245940215551
+  B2=0.0457629999507367  B3=-0.000048777476398907  B4=0.00828247672775274
.ENDS
*$
*
.SUBCKT VDRH05E300 1  2 PARAMS: TOL=0
X23  1 2 VDR_BASE_MODEL  PARAMS: T = {1+TOL/100}  C= 50pF  L=8nH  B1= 2.80692826559227
+  B2=0.0430195802943861  B3=-9.69508639090867E-05  B4=0.00893364131287861
.ENDS
*$
*
.SUBCKT VDRH05E320 1  2 PARAMS: TOL=0
X24  1 2 VDR_BASE_MODEL  PARAMS: T = {1+TOL/100}  C= 45pF  L=8nH  B1= 2.84537953501826
+  B2=0.0429116480840923  B3=-0.00014685069895426  B4=0.00894248746421172
.ENDS
*$
*
.SUBCKT VDRH05E350 1  2 PARAMS: TOL=0
X25  1 2 VDR_BASE_MODEL  PARAMS: T = {1+TOL/100}  C= 42pF  L=8nH  B1= 2.87220116691658
+  B2=0.0372358061625041  B3=-0.00023268723513332  B4=0.0105211583086913
.ENDS
*$
*
.SUBCKT VDRH05E385 1  2 PARAMS: TOL=0
X26  1 2 VDR_BASE_MODEL  PARAMS: T = {1+TOL/100}  C= 40pF  L=8nH  B1= 2.92409761510441
+  B2=0.0409984950382437  B3=-0.000170088539580757  B4=0.00913075604706021
.ENDS
*$
*
.SUBCKT VDRH05E420 1  2 PARAMS: TOL=0
X27  1 2 VDR_BASE_MODEL  PARAMS: T = {1+TOL/100}  C= 35pF  L=8nH  B1= 2.9614986292534
+  B2=0.0394766611862754  B3=-0.000199828840978882  B4=0.00976726691103456
.ENDS
*$
*
.SUBCKT VDRH05E460 1  2 PARAMS: TOL=0
X28  1 2 VDR_BASE_MODEL  PARAMS: T = {1+TOL/100}  C= 30pF  L=8nH  B1= 3.00578775766971
+  B2=0.0387668398890475  B3=-0.000242259398895372  B4=0.0106628091214888
.ENDS
*$
*
.SUBCKT VDRH07D011 1  2 PARAMS: TOL=0
X29  1 2 VDR_BASE_MODEL  PARAMS: T = {1+TOL/100}  C= 3600pF  L=10nH  B1= 1.44507895423555
+  B2=0.0728819671409956  B3=0.000147408509655747  B4=0.0178644818714781
.ENDS
*$
*
.SUBCKT VDRH07D014 1  2 PARAMS: TOL=0
X30  1 2 VDR_BASE_MODEL  PARAMS: T = {1+TOL/100}  C= 2800pF  L=10nH  B1= 1.53865515255071
+  B2=0.0723863197299085  B3=-0.000141032032519987  B4=0.019212631440911
.ENDS
*$
*
.SUBCKT VDRH07D017 1  2 PARAMS: TOL=0
X31  1 2 VDR_BASE_MODEL  PARAMS: T = {1+TOL/100}  C= 2000pF  L=10nH  B1= 1.6348807011695
+  B2=0.0669813270688187  B3=-0.000607225889087486  B4=0.0203219141541944
.ENDS
*$
*
.SUBCKT VDRH07D020 1  2 PARAMS: TOL=0
X32  1 2 VDR_BASE_MODEL  PARAMS: T = {1+TOL/100}  C= 1500pF  L=10nH  B1= 1.72303176803197
+  B2=0.0652177380512365  B3=-0.000799112666605868  B4=0.0195619307088473
.ENDS
*$
*
.SUBCKT VDRH07D025 1  2 PARAMS: TOL=0
X33  1 2 VDR_BASE_MODEL  PARAMS: T = {1+TOL/100}  C= 1350pF  L=10nH  B1= 1.7881892474347
+  B2=0.0603809217122808  B3=-0.00080052313601121  B4=0.0220089611138608
.ENDS
*$
*
.SUBCKT VDRH07D030 1  2 PARAMS: TOL=0
X34  1 2 VDR_BASE_MODEL  PARAMS: T = {1+TOL/100}  C= 1600pF  L=10nH  B1= 1.87860460607517
+  B2=0.0664436843983478  B3=-0.000680174183136877  B4=0.0195658270019969
.ENDS
*$
*
.SUBCKT VDRH07D035 1  2 PARAMS: TOL=0
X35  1 2 VDR_BASE_MODEL  PARAMS: T = {1+TOL/100}  C= 1300pF  L=10nH  B1= 1.95921420908556
+  B2=0.0726613192537312  B3=-0.00050579718286835  B4=0.0188973192000223
.ENDS
*$
*
.SUBCKT VDRH07D040 1  2 PARAMS: TOL=0
X36  1 2 VDR_BASE_MODEL  PARAMS: T = {1+TOL/100}  C= 1000pF  L=10nH  B1= 2.04093578922734
+  B2=0.0689476679029852  B3=-0.000690540315271126  B4=0.0208944547051935
.ENDS
*$
*
.SUBCKT VDRH07K050 1  2 PARAMS: TOL=0
X37  1 2 VDR_BASE_MODEL  PARAMS: T = {1+TOL/100}  C= 900pF  L=10nH  B1= 2.02549470398884
+  B2=0.0364452385669419  B3=-0.000179311318206467  B4=0.0113878910064183
.ENDS
*$
*
.SUBCKT VDRH07K060 1  2 PARAMS: TOL=0
X38  1 2 VDR_BASE_MODEL  PARAMS: T = {1+TOL/100}  C= 700pF  L=10nH  B1= 2.10910684575272
+  B2=0.0350756295995763  B3=-0.000207321627683234  B4=0.0112196126459973
.ENDS
*$
*
.SUBCKT VDRH07K075 1  2 PARAMS: TOL=0
X39  1 2 VDR_BASE_MODEL  PARAMS: T = {1+TOL/100}  C= 530pF  L=10nH  B1= 2.19973495589673
+  B2=0.0406902741256596  B3=-0.000104279354303754  B4=0.00961981431059891
.ENDS
*$
*
.SUBCKT VDRH07K095 1  2 PARAMS: TOL=0
X40  1 2 VDR_BASE_MODEL  PARAMS: T = {1+TOL/100}  C= 450pF  L=10nH  B1= 2.29871337350327
+  B2=0.0417928740783679  B3=-0.000146679109075158  B4=0.00861706429569924
.ENDS
*$
*
.SUBCKT VDRH07K115 1  2 PARAMS: TOL=0
X41  1 2 VDR_BASE_MODEL  PARAMS: T = {1+TOL/100}  C= 390pF  L=10nH  B1= 2.39253136771877
+  B2=0.0492584606804396  B3=-0.000101541868506655  B4=0.0055370177772611
.ENDS
*$
*
.SUBCKT VDRH07K130 1  2 PARAMS: TOL=0
X42  1 2 VDR_BASE_MODEL  PARAMS: T = {1+TOL/100}  C= 320pF  L=10nH  B1= 2.43573070891077
+  B2=0.0465274987438396  B3=-0.000128812405519303  B4=0.00598541570157323
.ENDS
*$
*
.SUBCKT VDRH07K140 1  2 PARAMS: TOL=0
X43  1 2 VDR_BASE_MODEL  PARAMS: T = {1+TOL/100}  C= 290pF  L=10nH  B1= 2.46191463942877
+  B2=0.0401679939073974  B3=-0.000256234288201705  B4=0.00784989742556639
.ENDS
*$
*
.SUBCKT VDRH07K150 1  2 PARAMS: TOL=0
X44  1 2 VDR_BASE_MODEL  PARAMS: T = {1+TOL/100}  C= 270pF  L=10nH  B1= 2.50360406939661
+  B2=0.0429807010730944  B3=-0.000194324395714552  B4=0.00736201486592042
.ENDS
*$
*
.SUBCKT VDRH07K175 1  2 PARAMS: TOL=0
X45  1 2 VDR_BASE_MODEL  PARAMS: T = {1+TOL/100}  C= 230pF  L=10nH  B1= 2.56381992376412
+  B2=0.0465583908550428  B3=-0.000139914515251936  B4=0.00670840601615712
.ENDS
*$
*
.SUBCKT VDRH07K195 1  2 PARAMS: TOL=0
X46  1 2 VDR_BASE_MODEL  PARAMS: T = {1+TOL/100}  C= 210pF  L=10nH  B1= 2.6174038850272
+  B2=0.0515250640797093  B3=-9.62718423128553E-06  B4=0.00518262944794101
.ENDS
*$
*
.SUBCKT VDRH07K210 1  2 PARAMS: TOL=0
X47  1 2 VDR_BASE_MODEL  PARAMS: T = {1+TOL/100}  C= 190pF  L=10nH  B1= 2.65641449252543
+  B2=0.0519078964092857  B3=0.000128833996827938  B4=0.00505841036369134
.ENDS
*$
*
.SUBCKT VDRH07K230 1  2 PARAMS: TOL=0
X48  1 2 VDR_BASE_MODEL  PARAMS: T = {1+TOL/100}  C= 170pF  L=10nH  B1= 2.68074978237598
+  B2=0.0421900225516841  B3=-6.83126980043547E-05  B4=0.00506858349492526
.ENDS
*$
*
.SUBCKT VDRH07K250 1  2 PARAMS: TOL=0
X49  1 2 VDR_BASE_MODEL  PARAMS: T = {1+TOL/100}  C= 160pF  L=10nH  B1= 2.71784143706833
+  B2=0.0425019305202787  B3=-7.09013924319994E-05  B4=0.00473781787869767
.ENDS
*$
*
.SUBCKT VDRH07K275 1  2 PARAMS: TOL=0
X50  1 2 VDR_BASE_MODEL  PARAMS: T = {1+TOL/100}  C= 140pF  L=10nH  B1= 2.75971429333336
+  B2=0.0431407490885324  B3=-4.16668110078845E-05  B4=0.00459952457331794
.ENDS
*$
*
.SUBCKT VDRH07K300 1  2 PARAMS: TOL=0
X51  1 2 VDR_BASE_MODEL  PARAMS: T = {1+TOL/100}  C= 130pF  L=10nH  B1= 2.8001146293376
+  B2=0.0448679135438374  B3=9.06310056498494E-06  B4=0.00459793552939954
.ENDS
*$
*
.SUBCKT VDRH07K320 1  2 PARAMS: TOL=0
X52  1 2 VDR_BASE_MODEL  PARAMS: T = {1+TOL/100}  C= 120pF  L=10nH  B1= 2.83753488816238
+  B2=0.0463134394695414  B3=4.01382016145765E-05  B4=0.0045731501663726
.ENDS
*$
*
.SUBCKT VDRH07K350 1  2 PARAMS: TOL=0
X53  1 2 VDR_BASE_MODEL  PARAMS: T = {1+TOL/100}  C= 110pF  L=10nH  B1= 2.87533856842191
+  B2=0.0430669829598829  B3=-3.07340208539919E-05  B4=0.0048872404113438
.ENDS
*$
*
.SUBCKT VDRH07K385 1  2 PARAMS: TOL=0
X54  1 2 VDR_BASE_MODEL  PARAMS: T = {1+TOL/100}  C= 95pF  L=10nH  B1= 2.91920737254798
+  B2=0.0431395097912944  B3=-5.23897229928303E-05  B4=0.00452740877571813
.ENDS
*$
*
.SUBCKT VDRH07K420 1  2 PARAMS: TOL=0
X55  1 2 VDR_BASE_MODEL  PARAMS: T = {1+TOL/100}  C= 85pF  L=10nH  B1= 2.95612486318065
+  B2=0.0414908603442495  B3=-8.28935437956249E-05  B4=0.00486141692368534
.ENDS
*$
*
.SUBCKT VDRH07K460 1  2 PARAMS: TOL=0
X56  1 2 VDR_BASE_MODEL  PARAMS: T = {1+TOL/100}  C= 75pF  L=10nH  B1= 3.00382956202127
+  B2=0.044791627229717  B3=-4.56317089251719E-06  B4=0.00408595194894834
.ENDS
*$
*
.SUBCKT VDRH07K485 1  2 PARAMS: TOL=0
X57  1 2 VDR_BASE_MODEL  PARAMS: T = {1+TOL/100}  C= 65pF  L=10nH  B1= 3.0216769408259
+  B2=0.0454763975989784  B3=5.98127335720019E-06  B4=0.00439187591281162
.ENDS
*$
*
.SUBCKT VDRH07K510 1  2 PARAMS: TOL=0
X58  1 2 VDR_BASE_MODEL  PARAMS: T = {1+TOL/100}  C= 62pF  L=10nH  B1= 3.04387104197916
+  B2=0.0458478056860929  B3=1.24037837718859E-05  B4=0.00435109411322718
.ENDS
*$
*
.SUBCKT VDRH10G011 1  2 PARAMS: TOL=0
X59  1 2 VDR_BASE_MODEL  PARAMS: T = {1+TOL/100}  C= 8000pF  L=12nH  B1= 1.42508784268822
+  B2=0.063968322210924  B3=-2.18222733494879E-05  B4=0.0144940861627077
.ENDS
*$
*
.SUBCKT VDRH10G014 1  2 PARAMS: TOL=0
X60  1 2 VDR_BASE_MODEL  PARAMS: T = {1+TOL/100}  C= 6000pF  L=12nH  B1= 1.51770465500484
+  B2=0.0618509970546235  B3=-0.000364145323387498  B4=0.0157789069377544
.ENDS
*$
*
.SUBCKT VDRH10G017 1  2 PARAMS: TOL=0
X61  1 2 VDR_BASE_MODEL  PARAMS: T = {1+TOL/100}  C= 4000pF  L=12nH  B1= 1.62399238027384
+  B2=0.0649464697843732  B3=-0.000591743624194342  B4=0.0148634765680368
.ENDS
*$
*
.SUBCKT VDRH10G020 1  2 PARAMS: TOL=0
X62  1 2 VDR_BASE_MODEL  PARAMS: T = {1+TOL/100}  C= 3000pF  L=12nH  B1= 1.71523223874514
+  B2=0.065598135429757  B3=-0.00071564043218733  B4=0.0137966404842042
.ENDS
*$
*
.SUBCKT VDRH10G025 1  2 PARAMS: TOL=0
X63  1 2 VDR_BASE_MODEL  PARAMS: T = {1+TOL/100}  C= 2600pF  L=12nH  B1= 1.78592856234059
+  B2=0.0642996292968735  B3=-0.000628584133020912  B4=0.0148464744328069
.ENDS
*$
*
.SUBCKT VDRH10G030 1  2 PARAMS: TOL=0
X64  1 2 VDR_BASE_MODEL  PARAMS: T = {1+TOL/100}  C= 2700pF  L=12nH  B1= 1.86383061809278
+  B2=0.0611671581096596  B3=-0.000756379311071519  B4=0.015008346167908
.ENDS
*$
*
.SUBCKT VDRH10G035 1  2 PARAMS: TOL=0
X65  1 2 VDR_BASE_MODEL  PARAMS: T = {1+TOL/100}  C= 2200pF  L=12nH  B1= 1.94424353486557
+  B2=0.0672918113816811  B3=-0.000583730077674833  B4=0.0144346671007092
.ENDS
*$
*
.SUBCKT VDRH10G040 1  2 PARAMS: TOL=0
X66  1 2 VDR_BASE_MODEL  PARAMS: T = {1+TOL/100}  C= 1800pF  L=12nH  B1= 2.02203912608714
+  B2=0.061318159604675  B3=-0.000822078947826205  B4=0.0165463188249275
.ENDS
*$
*
.SUBCKT VDRH10S050 1  2 PARAMS: TOL=0
X67  1 2 VDR_BASE_MODEL  PARAMS: T = {1+TOL/100}  C= 1500pF  L=12nH  B1= 2.01163076337655
+  B2=0.0317134444346242  B3=-0.000243636275038531  B4=0.00902036076199672
.ENDS
*$
*
.SUBCKT VDRH10S060 1  2 PARAMS: TOL=0
X68  1 2 VDR_BASE_MODEL  PARAMS: T = {1+TOL/100}  C= 1200pF  L=12nH  B1= 2.10012079752718
+  B2=0.0327442068395519  B3=-0.0002219464190824  B4=0.00850930108858721
.ENDS
*$
*
.SUBCKT VDRH10S075 1  2 PARAMS: TOL=0
X69  1 2 VDR_BASE_MODEL  PARAMS: T = {1+TOL/100}  C= 1000pF  L=12nH  B1= 2.18614437990137
+  B2=0.0360622137913656  B3=-0.000167038982442962  B4=0.0076562023974123
.ENDS
*$
*
.SUBCKT VDRH10S095 1  2 PARAMS: TOL=0
X70  1 2 VDR_BASE_MODEL  PARAMS: T = {1+TOL/100}  C= 800pF  L=12nH  B1= 2.28865816372459
+  B2=0.0388917523441562  B3=-0.000173787018935274  B4=0.00661705478813283
.ENDS
*$
*
.SUBCKT VDRH10S115 1  2 PARAMS: TOL=0
X71  1 2 VDR_BASE_MODEL  PARAMS: T = {1+TOL/100}  C= 680pF  L=12nH  B1= 2.37640453537227
+  B2=0.0428879506442746  B3=-0.00020829954483675  B4=0.00482161787247105
.ENDS
*$
*
.SUBCKT VDRH10S130 1  2 PARAMS: TOL=0
X72  1 2 VDR_BASE_MODEL  PARAMS: T = {1+TOL/100}  C= 580pF  L=12nH  B1= 2.42659604963823
+  B2=0.0442350412726676  B3=-0.000140734493006452  B4=0.00453765647094841
.ENDS
*$
*
.SUBCKT VDRH10S140 1  2 PARAMS: TOL=0
X73  1 2 VDR_BASE_MODEL  PARAMS: T = {1+TOL/100}  C= 540pF  L=12nH  B1= 2.45238149568531
+  B2=0.0373379724439304  B3=-0.000284659346128021  B4=0.00604141082665971
.ENDS
*$
*
.SUBCKT VDRH10S150 1  2 PARAMS: TOL=0
X74  1 2 VDR_BASE_MODEL  PARAMS: T = {1+TOL/100}  C= 490pF  L=12nH  B1= 2.496116526189
+  B2=0.0412521042095946  B3=-0.000198352222437517  B4=0.00547831812377824
.ENDS
*$
*
.SUBCKT VDRH10S175 1  2 PARAMS: TOL=0
X75  1 2 VDR_BASE_MODEL  PARAMS: T = {1+TOL/100}  C= 430pF  L=12nH  B1= 2.55495577015066
+  B2=0.0443144524177562  B3=-0.00015206696255893  B4=0.00505864704693067
.ENDS
*$
*
.SUBCKT VDRH10S195 1  2 PARAMS: TOL=0
X76  1 2 VDR_BASE_MODEL  PARAMS: T = {1+TOL/100}  C= 380pF  L=12nH  B1= 2.60368905092678
+  B2=0.0465397300449773  B3=-8.44046650031404E-05  B4=0.00432103231828799
.ENDS
*$
*
.SUBCKT VDRH10S210 1  2 PARAMS: TOL=0
X77  1 2 VDR_BASE_MODEL  PARAMS: T = {1+TOL/100}  C= 350pF  L=12nH  B1= 2.63936532166591
+  B2=0.0443774538439217  B3=-1.30441076380831E-05  B4=0.00468543557183967
.ENDS
*$
*
.SUBCKT VDRH10S230 1  2 PARAMS: TOL=0
X78  1 2 VDR_BASE_MODEL  PARAMS: T = {1+TOL/100}  C= 320pF  L=12nH  B1= 2.66909535730927
+  B2=0.0358460890432717  B3=-0.00036751964896485  B4=0.00434509083014708
.ENDS
*$
*
.SUBCKT VDRH10S250 1  2 PARAMS: TOL=0
X79  1 2 VDR_BASE_MODEL  PARAMS: T = {1+TOL/100}  C= 300pF  L=12nH  B1= 2.70598578148109
+  B2=0.0360962558415571  B3=-0.000379729608144576  B4=0.00410919173538673
.ENDS
*$
*
.SUBCKT VDRH10S275 1  2 PARAMS: TOL=0
X80  1 2 VDR_BASE_MODEL  PARAMS: T = {1+TOL/100}  C= 270pF  L=12nH  B1= 2.74732008603907
+  B2=0.0356505276034982  B3=-0.000458196619392352  B4=0.00413552511121772
.ENDS
*$
*
.SUBCKT VDRH10S300 1  2 PARAMS: TOL=0
X81  1 2 VDR_BASE_MODEL  PARAMS: T = {1+TOL/100}  C= 240pF  L=12nH  B1= 2.78682311969043
+  B2=0.0366453599648518  B3=-0.000441954768496461  B4=0.00422628159955904
.ENDS
*$
*
.SUBCKT VDRH10S320 1  2 PARAMS: TOL=0
X82  1 2 VDR_BASE_MODEL  PARAMS: T = {1+TOL/100}  C= 220pF  L=12nH  B1= 2.82363295152396
+  B2=0.0376393090573494  B3=-0.000427354957947735  B4=0.00426323950345392
.ENDS
*$
*
.SUBCKT VDRH10S350 1  2 PARAMS: TOL=0
X83  1 2 VDR_BASE_MODEL  PARAMS: T = {1+TOL/100}  C= 200pF  L=12nH  B1= 2.86252698696054
+  B2=0.0349367781574446  B3=-0.000491921666447115  B4=0.00443078384040516
.ENDS
*$
*
.SUBCKT VDRH10S385 1  2 PARAMS: TOL=0
X84  1 2 VDR_BASE_MODEL  PARAMS: T = {1+TOL/100}  C= 180pF  L=12nH  B1= 2.9065864394713
+  B2=0.0352133967921214  B3=-0.000518404248765652  B4=0.00413439611752526
.ENDS
*$
*
.SUBCKT VDRH10S420 1  2 PARAMS: TOL=0
X85  1 2 VDR_BASE_MODEL  PARAMS: T = {1+TOL/100}  C= 165pF  L=12nH  B1= 2.94473736858001
+  B2=0.033897470565078  B3=-0.000578506537395541  B4=0.00432129341997123
.ENDS
*$
*
.SUBCKT VDRH10S460 1  2 PARAMS: TOL=0
X86  1 2 VDR_BASE_MODEL  PARAMS: T = {1+TOL/100}  C= 150pF  L=12nH  B1= 2.99241401404836
+  B2=0.0371730970573595  B3=-0.000499174261698109  B4=0.00373278990093581
.ENDS
*$
*
.SUBCKT VDRH10S485 1  2 PARAMS: TOL=0
X87  1 2 VDR_BASE_MODEL  PARAMS: T = {1+TOL/100}  C= 145pF  L=12nH  B1= 3.00883077067143
+  B2=0.0371226192879885  B3=-0.000492790643761553  B4=0.004071271904007
.ENDS
*$
*
.SUBCKT VDRH10S510 1  2 PARAMS: TOL=0
X88  1 2 VDR_BASE_MODEL  PARAMS: T = {1+TOL/100}  C= 135pF  L=12nH  B1= 3.03060170307665
+  B2=0.037127366536143  B3=-0.000508454686241419  B4=0.00408973946407739
.ENDS
*$
*
.SUBCKT VDRH10S550 1  2 PARAMS: TOL=0
X89  1 2 VDR_BASE_MODEL  PARAMS: T = {1+TOL/100}  C= 120pF  L=12nH  B1= 3.07409748205942
+  B2=0.0358738175966002  B3=-0.000545868718296536  B4=0.00413725791072957
.ENDS
*$
*
.SUBCKT VDRH10S625 1  2 PARAMS: TOL=0
X90  1 2 VDR_BASE_MODEL  PARAMS: T = {1+TOL/100}  C= 105pF  L=12nH  B1= 3.11275099380762
+  B2=0.033416103793065  B3=-0.000618568442339153  B4=0.00401300521607627
.ENDS
*$
*
.SUBCKT VDRH10S680 1  2 PARAMS: TOL=0
X91  1 2 VDR_BASE_MODEL  PARAMS: T = {1+TOL/100}  C= 80pF  L=12nH  B1= 3.15382375357585
+  B2=0.0322624463569935  B3=-0.000688675785843232  B4=0.00366424131910555
.ENDS
*$
*
.SUBCKT VDRH14M011 1  2 PARAMS: TOL=0
X92  1 2 VDR_BASE_MODEL  PARAMS: T = {1+TOL/100}  C= 20000pF  L=12nH  B1= 1.40904125831697
+  B2=0.0570859125220981  B3=-0.000147691704306045  B4=0.0114749678239289
.ENDS
*$
*
.SUBCKT VDRH14M014 1  2 PARAMS: TOL=0
X93  1 2 VDR_BASE_MODEL  PARAMS: T = {1+TOL/100}  C= 15000pF  L=12nH  B1= 1.50000248828603
+  B2=0.0537447748003638  B3=-0.000523179607749142  B4=0.0126682951741576
.ENDS
*$
*
.SUBCKT VDRH14M017 1  2 PARAMS: TOL=0
X94  1 2 VDR_BASE_MODEL  PARAMS: T = {1+TOL/100}  C= 10000pF  L=12nH  B1= 1.60841247828789
+  B2=0.0589306404186523  B3=-0.000689476713622307  B4=0.011609535832923
.ENDS
*$
*
.SUBCKT VDRH14M020 1  2 PARAMS: TOL=0
X95  1 2 VDR_BASE_MODEL  PARAMS: T = {1+TOL/100}  C= 7500pF  L=12nH  B1= 1.69871582973439
+  B2=0.0601734452378453  B3=-0.00078227030351944  B4=0.0108421477690336
.ENDS
*$
*
.SUBCKT VDRH14M025 1  2 PARAMS: TOL=0
X96  1 2 VDR_BASE_MODEL  PARAMS: T = {1+TOL/100}  C= 6500pF  L=12nH  B1= 1.76895378901133
+  B2=0.0588756768021195  B3=-0.000691480183327683  B4=0.011666132089279
.ENDS
*$
*
.SUBCKT VDRH14M030 1  2 PARAMS: TOL=0
X97  1 2 VDR_BASE_MODEL  PARAMS: T = {1+TOL/100}  C= 6000pF  L=12nH  B1= 1.85091077743366
+  B2=0.0570859100116913  B3=-0.000802313790684565  B4=0.0114131422959089
.ENDS
*$
*
.SUBCKT VDRH14M035 1  2 PARAMS: TOL=0
X98  1 2 VDR_BASE_MODEL  PARAMS: T = {1+TOL/100}  C= 4800pF  L=12nH  B1= 1.92737306281935
+  B2=0.0603602336257473  B3=-0.000705530098331042  B4=0.0114309046844073
.ENDS
*$
*
.SUBCKT VDRH14M040 1  2 PARAMS: TOL=0
X99  1 2 VDR_BASE_MODEL  PARAMS: T = {1+TOL/100}  C= 3800pF  L=12nH  B1= 2.00917513648351
+  B2=0.0572008780390973  B3=-0.000869701153476147  B4=0.0125512450885722
.ENDS
*$
*
.SUBCKT VDRH14V050 1  2 PARAMS: TOL=0
X100  1 2 VDR_BASE_MODEL  PARAMS: T = {1+TOL/100}  C= 3100pF  L=12nH  B1= 2.00185552723361
+  B2=0.0274135348171456  B3=-0.000324497619142938  B4=0.00755489263409773
.ENDS
*$
*
.SUBCKT VDRH14V060 1  2 PARAMS: TOL=0
X101  1 2 VDR_BASE_MODEL  PARAMS: T = {1+TOL/100}  C= 2300pF  L=12nH  B1= 2.09038678515317
+  B2=0.028490834616246  B3=-0.000301437657483886  B4=0.00714057693580639
.ENDS
*$
*
.SUBCKT VDRH14V075 1  2 PARAMS: TOL=0
X102  1 2 VDR_BASE_MODEL  PARAMS: T = {1+TOL/100}  C= 1900pF  L=12nH  B1= 2.17618494546902
+  B2=0.0316972987353003  B3=-0.000248819824545772  B4=0.00646447533138107
.ENDS
*$
*
.SUBCKT VDRH14V095 1  2 PARAMS: TOL=0
X103  1 2 VDR_BASE_MODEL  PARAMS: T = {1+TOL/100}  C= 1500pF  L=12nH  B1= 2.27863947936204
+  B2=0.034436909282526  B3=-0.00025841691151021  B4=0.00563911207204974
.ENDS
*$
*
.SUBCKT VDRH14V115 1  2 PARAMS: TOL=0
X104  1 2 VDR_BASE_MODEL  PARAMS: T = {1+TOL/100}  C= 1320pF  L=12nH  B1= 2.36636820151927
+  B2=0.0383707128637436  B3=-0.000295193245567667  B4=0.00420838203915892
.ENDS
*$
*
.SUBCKT VDRH14V130 1  2 PARAMS: TOL=0
X105  1 2 VDR_BASE_MODEL  PARAMS: T = {1+TOL/100}  C= 1050pF  L=12nH  B1= 2.41639430536036
+  B2=0.0397765116604608  B3=-0.000224138849067246  B4=0.00397476885558585
.ENDS
*$
*
.SUBCKT VDRH14V140 1  2 PARAMS: TOL=0
X106  1 2 VDR_BASE_MODEL  PARAMS: T = {1+TOL/100}  C= 950pF  L=12nH  B1= 2.44287245436395
+  B2=0.0331207397457194  B3=-0.000364683840246278  B4=0.0051606307646364
.ENDS
*$
*
.SUBCKT VDRH14V150 1  2 PARAMS: TOL=0
X107  1 2 VDR_BASE_MODEL  PARAMS: T = {1+TOL/100}  C= 850pF  L=12nH  B1= 2.48614825232545
+  B2=0.0366943860660455  B3=-0.000287273379112791  B4=0.00473744425729606
.ENDS
*$
*
.SUBCKT VDRH14V175 1  2 PARAMS: TOL=0
X108  1 2 VDR_BASE_MODEL  PARAMS: T = {1+TOL/100}  C= 750pF  L=12nH  B1= 2.54458418085733
+  B2=0.039620082560711  B3=-0.000242826024572834  B4=0.0044111206867768
.ENDS
*$
*
.SUBCKT VDRH14V195 1  2 PARAMS: TOL=0
X109  1 2 VDR_BASE_MODEL  PARAMS: T = {1+TOL/100}  C= 690pF  L=12nH  B1= 2.59319891194339
+  B2=0.0417405651889075  B3=-0.000177961747427936  B4=0.00383029203434886
.ENDS
*$
*
.SUBCKT VDRH14V210 1  2 PARAMS: TOL=0
X110  1 2 VDR_BASE_MODEL  PARAMS: T = {1+TOL/100}  C= 610pF  L=12nH  B1= 2.62911477027895
+  B2=0.0397505777378881  B3=-0.000102051064964711  B4=0.00410789024372753
.ENDS
*$
*
.SUBCKT VDRH14V230 1  2 PARAMS: TOL=0
X111  1 2 VDR_BASE_MODEL  PARAMS: T = {1+TOL/100}  C= 540pF  L=12nH  B1= 2.66412979460489
+  B2=0.0351997037688556  B3=-0.000351625925313971  B4=0.00345110073486919
.ENDS
*$
*
.SUBCKT VDRH14V250 1  2 PARAMS: TOL=0
X112  1 2 VDR_BASE_MODEL  PARAMS: T = {1+TOL/100}  C= 480pF  L=12nH  B1= 2.70081272896213
+  B2=0.035368781332398  B3=-0.000365162713521202  B4=0.00327595958071666
.ENDS
*$
*
.SUBCKT VDRH14V275 1  2 PARAMS: TOL=0
X113  1 2 VDR_BASE_MODEL  PARAMS: T = {1+TOL/100}  C= 440pF  L=12nH  B1= 2.74232300258022
+  B2=0.0349384897726725  B3=-0.000444262183238313  B4=0.00329208639062675
.ENDS
*$
*
.SUBCKT VDRH14V300 1  2 PARAMS: TOL=0
X114  1 2 VDR_BASE_MODEL  PARAMS: T = {1+TOL/100}  C= 400pF  L=12nH  B1= 2.7818098008355
+  B2=0.0359305925542295  B3=-0.000427980588943328  B4=0.00335746356143731
.ENDS
*$
*
.SUBCKT VDRH14V320 1  2 PARAMS: TOL=0
X115  1 2 VDR_BASE_MODEL  PARAMS: T = {1+TOL/100}  C= 370pF  L=12nH  B1= 2.81854800442719
+  B2=0.0369068335540874  B3=-0.000413508640363547  B4=0.00338339379553409
.ENDS
*$
*
.SUBCKT VDRH14V350 1  2 PARAMS: TOL=0
X116  1 2 VDR_BASE_MODEL  PARAMS: T = {1+TOL/100}  C= 320pF  L=12nH  B1= 2.85785986236558
+  B2=0.0343348636714998  B3=-0.000476544871604713  B4=0.00351085472072658
.ENDS
*$
*
.SUBCKT VDRH14V385 1  2 PARAMS: TOL=0
X117  1 2 VDR_BASE_MODEL  PARAMS: T = {1+TOL/100}  C= 280pF  L=12nH  B1= 2.90162258893154
+  B2=0.0345171850631164  B3=-0.000504052588326095  B4=0.00329178321988192
.ENDS
*$
*
.SUBCKT VDRH14V420 1  2 PARAMS: TOL=0
X118  1 2 VDR_BASE_MODEL  PARAMS: T = {1+TOL/100}  C= 250pF  L=12nH  B1= 2.93999697311056
+  B2=0.033304205615825  B3=-0.00056202802344744  B4=0.00343367210625905
.ENDS
*$
*
.SUBCKT VDRH14V460 1  2 PARAMS: TOL=0
X119  1 2 VDR_BASE_MODEL  PARAMS: T = {1+TOL/100}  C= 225pF  L=12nH  B1= 2.98716198416519
+  B2=0.0362754003566191  B3=-0.000490052346512281  B4=0.00298431780832852
.ENDS
*$
*
.SUBCKT VDRH14V485 1  2 PARAMS: TOL=0
X120  1 2 VDR_BASE_MODEL  PARAMS: T = {1+TOL/100}  C= 220pF  L=12nH  B1= 3.00370748865088
+  B2=0.0363442486360963  B3=-0.000480194008261718  B4=0.003239577884749
.ENDS
*$
*
.SUBCKT VDRH14V510 1  2 PARAMS: TOL=0
X121  1 2 VDR_BASE_MODEL  PARAMS: T = {1+TOL/100}  C= 220pF  L=12nH  B1= 3.0254981662574
+  B2=0.0363533481109536  B3=-0.000495849388496468  B4=0.0032530170987538
.ENDS
*$
*
.SUBCKT VDRH14V550 1  2 PARAMS: TOL=0
X122  1 2 VDR_BASE_MODEL  PARAMS: T = {1+TOL/100}  C= 180pF  L=12nH  B1= 3.06913512871972
+  B2=0.0351549010981771  B3=-0.000532317681325971  B4=0.00329056624594349
.ENDS
*$
*
.SUBCKT VDRH14V625 1  2 PARAMS: TOL=0
X123  1 2 VDR_BASE_MODEL  PARAMS: T = {1+TOL/100}  C= 165pF  L=12nH  B1= 3.10790077767318
+  B2=0.0327348759441092  B3=-0.000604418640020249  B4=0.00320332644613769
.ENDS
*$
*
.SUBCKT VDRH14V680 1  2 PARAMS: TOL=0
X124  1 2 VDR_BASE_MODEL  PARAMS: T = {1+TOL/100}  C= 150pF  L=12nH  B1= 3.14891589525485
+  B2=0.0315027931485329  B3=-0.000676896668728172  B4=0.00294327454230915
.ENDS
*$
*
.SUBCKT VDRH20R014 1  2 PARAMS: TOL=0
X125  1 2 VDR_BASE_MODEL  PARAMS: T = {1+TOL/100}  C= 30000pF  L=13nH  B1= 1.48068371278637
+  B2=0.045166778080108  B3=-0.000687374458833409  B4=0.011904729226309
.ENDS
*$
*
.SUBCKT VDRH20R017 1  2 PARAMS: TOL=0
X126  1 2 VDR_BASE_MODEL  PARAMS: T = {1+TOL/100}  C= 20000pF  L=13nH  B1= 1.58838256575542
+  B2=0.05027103871474  B3=-0.000851561210445513  B4=0.0110246222188308
.ENDS
*$
*
.SUBCKT VDRH20R020 1  2 PARAMS: TOL=0
X127  1 2 VDR_BASE_MODEL  PARAMS: T = {1+TOL/100}  C= 15000pF  L=13nH  B1= 1.67913667436139
+  B2=0.0515388499024731  B3=-0.000947598432622603  B4=0.0103555351265419
.ENDS
*$
*
.SUBCKT VDRH20R025 1  2 PARAMS: TOL=0
X128  1 2 VDR_BASE_MODEL  PARAMS: T = {1+TOL/100}  C= 13000pF  L=13nH  B1= 1.74891198449303
+  B2=0.0502392840715603  B3=-0.000852606322333879  B4=0.0110693267089263
.ENDS
*$
*
.SUBCKT VDRH20R030 1  2 PARAMS: TOL=0
X129  1 2 VDR_BASE_MODEL  PARAMS: T = {1+TOL/100}  C= 12000pF  L=13nH  B1= 1.83108064274363
+  B2=0.0487879669865939  B3=-0.000952513035478344  B4=0.0108250078675577
.ENDS
*$
*
.SUBCKT VDRH20R035 1  2 PARAMS: TOL=0
X130  1 2 VDR_BASE_MODEL  PARAMS: T = {1+TOL/100}  C= 9600pF  L=13nH  B1= 1.90721166803598
+  B2=0.0515475521796314  B3=-0.000872388857932336  B4=0.0108891825220238
.ENDS
*$
*
.SUBCKT VDRH20R040 1  2 PARAMS: TOL=0
X131  1 2 VDR_BASE_MODEL  PARAMS: T = {1+TOL/100}  C= 7600pF  L=13nH  B1= 1.9886128586649
+  B2=0.0469613568014442  B3=-0.00108957709449033  B4=0.0119633405934881
.ENDS
*$
*
.SUBCKT VDRH20X060 1  2 PARAMS: TOL=0
X132  1 2 VDR_BASE_MODEL  PARAMS: T = {1+TOL/100}  C= 4600pF  L=13nH  B1= 2.07260155824137
+  B2=0.0193272514591698  B3=-0.00049843614658281  B4=0.00708117085466465
.ENDS
*$
*
.SUBCKT VDRH20X075 1  2 PARAMS: TOL=0
X133  1 2 VDR_BASE_MODEL  PARAMS: T = {1+TOL/100}  C= 3800pF  L=13nH  B1= 2.15843381558766
+  B2=0.0224041357112123  B3=-0.000450814469082353  B4=0.00655003697866818
.ENDS
*$
*
.SUBCKT VDRH20X095 1  2 PARAMS: TOL=0
X134  1 2 VDR_BASE_MODEL  PARAMS: T = {1+TOL/100}  C= 3000pF  L=13nH  B1= 2.26133852638837
+  B2=0.0252098361814679  B3=-0.00046171177604564  B4=0.00586906399505429
.ENDS
*$
*
.SUBCKT VDRH20X115 1  2 PARAMS: TOL=0